
---------- Begin Simulation Statistics ----------
final_tick                               270775864655000                       # Number of ticks from beginning of simulation (restored from checkpoints and never reset)
host_inst_rate                                  50724                       # Simulator instruction rate (inst/s)
host_mem_usage                                 805776                       # Number of bytes of host memory used
host_op_rate                                    84707                       # Simulator op (including micro ops) rate (op/s)
host_seconds                                   197.15                       # Real time elapsed on the host
host_tick_rate                               43544445                       # Simulator tick rate (ticks/s)
sim_freq                                 1000000000000                       # Frequency of simulated ticks
sim_insts                                    10000010                       # Number of instructions simulated
sim_ops                                      16699646                       # Number of ops (including micro ops) simulated
sim_seconds                                  0.008585                       # Number of seconds simulated
sim_ticks                                  8584601250                       # Number of ticks simulated
system.cpu.Branches                                 1                       # Number of branches fetched
system.cpu.committedInsts                           7                       # Number of instructions committed
system.cpu.committedOps                            18                       # Number of ops (including micro ops) committed
system.cpu.dtb.rdAccesses                           5                       # TLB accesses on read requests
system.cpu.dtb.rdMisses                             0                       # TLB misses on read requests
system.cpu.dtb.wrAccesses                           1                       # TLB accesses on write requests
system.cpu.dtb.wrMisses                             0                       # TLB misses on write requests
system.cpu.idle_fraction                            0                       # Percentage of idle cycles
system.cpu.itb.rdAccesses                           0                       # TLB accesses on read requests
system.cpu.itb.rdMisses                             0                       # TLB misses on read requests
system.cpu.itb.wrAccesses                           9                       # TLB accesses on write requests
system.cpu.itb.wrMisses                             0                       # TLB misses on write requests
system.cpu.not_idle_fraction                        1                       # Percentage of non-idle cycles
system.cpu.numCycles                               20                       # number of cpu cycles simulated
system.cpu.numWorkItemsCompleted                    0                       # number of work items this cpu completed
system.cpu.numWorkItemsStarted                      0                       # number of work items this cpu started
system.cpu.num_busy_cycles                         20                       # Number of busy cycles
system.cpu.num_cc_register_writes                   2                       # number of times the CC registers were written
system.cpu.num_conditional_control_insts            0                       # number of instructions that are conditional controls
system.cpu.num_fp_alu_accesses                      0                       # Number of float alu accesses
system.cpu.num_fp_insts                             0                       # number of float instructions
system.cpu.num_fp_register_reads                    0                       # number of times the floating registers were read
system.cpu.num_fp_register_writes                   0                       # number of times the floating registers were written
system.cpu.num_func_calls                           1                       # number of times a function call or return occured
system.cpu.num_idle_cycles                          0                       # Number of idle cycles
system.cpu.num_int_alu_accesses                    18                       # Number of integer alu accesses
system.cpu.num_int_insts                           18                       # number of integer instructions
system.cpu.num_int_register_reads                  40                       # number of times the integer registers were read
system.cpu.num_int_register_writes                 16                       # number of times the integer registers were written
system.cpu.num_load_insts                           5                       # Number of load instructions
system.cpu.num_mem_refs                             6                       # number of memory refs
system.cpu.num_store_insts                          1                       # Number of store instructions
system.cpu.num_vec_alu_accesses                     0                       # Number of vector alu accesses
system.cpu.num_vec_insts                            0                       # number of vector instructions
system.cpu.num_vec_register_reads                   0                       # number of times the vector registers were read
system.cpu.num_vec_register_writes                  0                       # number of times the vector registers were written
system.cpu.op_class::No_OpClass                     0      0.00%      0.00% # Class of executed instruction
system.cpu.op_class::IntAlu                        12     66.67%     66.67% # Class of executed instruction
system.cpu.op_class::IntMult                        0      0.00%     66.67% # Class of executed instruction
system.cpu.op_class::IntDiv                         0      0.00%     66.67% # Class of executed instruction
system.cpu.op_class::FloatAdd                       0      0.00%     66.67% # Class of executed instruction
system.cpu.op_class::FloatCmp                       0      0.00%     66.67% # Class of executed instruction
system.cpu.op_class::FloatCvt                       0      0.00%     66.67% # Class of executed instruction
system.cpu.op_class::FloatMult                      0      0.00%     66.67% # Class of executed instruction
system.cpu.op_class::FloatMultAcc                   0      0.00%     66.67% # Class of executed instruction
system.cpu.op_class::FloatDiv                       0      0.00%     66.67% # Class of executed instruction
system.cpu.op_class::FloatMisc                      0      0.00%     66.67% # Class of executed instruction
system.cpu.op_class::FloatSqrt                      0      0.00%     66.67% # Class of executed instruction
system.cpu.op_class::SimdAdd                        0      0.00%     66.67% # Class of executed instruction
system.cpu.op_class::SimdAddAcc                     0      0.00%     66.67% # Class of executed instruction
system.cpu.op_class::SimdAlu                        0      0.00%     66.67% # Class of executed instruction
system.cpu.op_class::SimdCmp                        0      0.00%     66.67% # Class of executed instruction
system.cpu.op_class::SimdCvt                        0      0.00%     66.67% # Class of executed instruction
system.cpu.op_class::SimdMisc                       0      0.00%     66.67% # Class of executed instruction
system.cpu.op_class::SimdMult                       0      0.00%     66.67% # Class of executed instruction
system.cpu.op_class::SimdMultAcc                    0      0.00%     66.67% # Class of executed instruction
system.cpu.op_class::SimdShift                      0      0.00%     66.67% # Class of executed instruction
system.cpu.op_class::SimdShiftAcc                   0      0.00%     66.67% # Class of executed instruction
system.cpu.op_class::SimdDiv                        0      0.00%     66.67% # Class of executed instruction
system.cpu.op_class::SimdSqrt                       0      0.00%     66.67% # Class of executed instruction
system.cpu.op_class::SimdFloatAdd                   0      0.00%     66.67% # Class of executed instruction
system.cpu.op_class::SimdFloatAlu                   0      0.00%     66.67% # Class of executed instruction
system.cpu.op_class::SimdFloatCmp                   0      0.00%     66.67% # Class of executed instruction
system.cpu.op_class::SimdFloatCvt                   0      0.00%     66.67% # Class of executed instruction
system.cpu.op_class::SimdFloatDiv                   0      0.00%     66.67% # Class of executed instruction
system.cpu.op_class::SimdFloatMisc                  0      0.00%     66.67% # Class of executed instruction
system.cpu.op_class::SimdFloatMult                  0      0.00%     66.67% # Class of executed instruction
system.cpu.op_class::SimdFloatMultAcc               0      0.00%     66.67% # Class of executed instruction
system.cpu.op_class::SimdFloatSqrt                  0      0.00%     66.67% # Class of executed instruction
system.cpu.op_class::SimdReduceAdd                  0      0.00%     66.67% # Class of executed instruction
system.cpu.op_class::SimdReduceAlu                  0      0.00%     66.67% # Class of executed instruction
system.cpu.op_class::SimdReduceCmp                  0      0.00%     66.67% # Class of executed instruction
system.cpu.op_class::SimdFloatReduceAdd             0      0.00%     66.67% # Class of executed instruction
system.cpu.op_class::SimdFloatReduceCmp             0      0.00%     66.67% # Class of executed instruction
system.cpu.op_class::SimdAes                        0      0.00%     66.67% # Class of executed instruction
system.cpu.op_class::SimdAesMix                     0      0.00%     66.67% # Class of executed instruction
system.cpu.op_class::SimdSha1Hash                   0      0.00%     66.67% # Class of executed instruction
system.cpu.op_class::SimdSha1Hash2                  0      0.00%     66.67% # Class of executed instruction
system.cpu.op_class::SimdSha256Hash                 0      0.00%     66.67% # Class of executed instruction
system.cpu.op_class::SimdSha256Hash2                0      0.00%     66.67% # Class of executed instruction
system.cpu.op_class::SimdShaSigma2                  0      0.00%     66.67% # Class of executed instruction
system.cpu.op_class::SimdShaSigma3                  0      0.00%     66.67% # Class of executed instruction
system.cpu.op_class::SimdPredAlu                    0      0.00%     66.67% # Class of executed instruction
system.cpu.op_class::MemRead                        5     27.78%     94.44% # Class of executed instruction
system.cpu.op_class::MemWrite                       1      5.56%    100.00% # Class of executed instruction
system.cpu.op_class::FloatMemRead                   0      0.00%    100.00% # Class of executed instruction
system.cpu.op_class::FloatMemWrite                  0      0.00%    100.00% # Class of executed instruction
system.cpu.op_class::IprAccess                      0      0.00%    100.00% # Class of executed instruction
system.cpu.op_class::InstPrefetch                   0      0.00%    100.00% # Class of executed instruction
system.cpu.op_class::total                         18                       # Class of executed instruction
system.cpu.workload.numSyscalls                     0                       # Number of system calls
system.membus.snoop_filter.hit_multi_requests            0                       # Number of requests hitting in the snoop filter with multiple (>1) holders of the requested data.
system.membus.snoop_filter.hit_multi_snoops            0                       # Number of snoops hitting in the snoop filter with multiple (>1) holders of the requested data.
system.membus.snoop_filter.hit_single_requests       144862                       # Number of requests hitting in the snoop filter with a single holder of the requested data.
system.membus.snoop_filter.hit_single_snoops            0                       # Number of snoops hitting in the snoop filter with a single holder of the requested data.
system.membus.snoop_filter.tot_requests        298203                       # Total number of requests made to the snoop filter.
system.membus.snoop_filter.tot_snoops               0                       # Total number of snoops made to the snoop filter.
system.switch_cpus.branchPred.BTBCorrect            0                       # Number of correct BTB predictions (this stat may not work properly.
system.switch_cpus.branchPred.BTBHitPct      0.000000                       # BTB Hit Percentage
system.switch_cpus.branchPred.BTBHits               0                       # Number of BTB hits
system.switch_cpus.branchPred.BTBLookups      1225402                       # Number of BTB lookups
system.switch_cpus.branchPred.RASInCorrect           32                       # Number of incorrect RAS predictions.
system.switch_cpus.branchPred.condIncorrect        60490                       # Number of conditional branches incorrect
system.switch_cpus.branchPred.condPredicted      1253215                       # Number of conditional branches predicted
system.switch_cpus.branchPred.indirectHits       939584                       # Number of indirect target hits.
system.switch_cpus.branchPred.indirectLookups      1225402                       # Number of indirect predictor lookups.
system.switch_cpus.branchPred.indirectMisses       285818                       # Number of indirect misses.
system.switch_cpus.branchPred.lookups         1324628                       # Number of BP lookups
system.switch_cpus.branchPred.usedRAS           35501                       # Number of times the RAS was used to get a target.
system.switch_cpus.branchPredindirectMispredicted        12717                       # Number of mispredicted indirect branches.
system.switch_cpus.cc_regfile_reads           6140893                       # number of cc regfile reads
system.switch_cpus.cc_regfile_writes          4082947                       # number of cc regfile writes
system.switch_cpus.commit.amos                      0                       # Number of atomic instructions committed
system.switch_cpus.commit.branchMispredicts        60559                       # The number of times a branch was mispredicted
system.switch_cpus.commit.branches            1012410                       # Number of branches committed
system.switch_cpus.commit.bw_lim_events       1373792                       # number cycles where commit BW limit reached
system.switch_cpus.commit.commitSquashedInsts      2179871                       # The number of squashed insts skipped by commit
system.switch_cpus.commit.committedInsts     10000003                       # Number of instructions committed
system.switch_cpus.commit.committedOps       16699628                       # Number of ops (including micro ops) committed
system.switch_cpus.commit.committed_per_cycle::samples     16834861                       # Number of insts commited each cycle
system.switch_cpus.commit.committed_per_cycle::mean     0.991967                       # Number of insts commited each cycle
system.switch_cpus.commit.committed_per_cycle::stdev     2.355754                       # Number of insts commited each cycle
system.switch_cpus.commit.committed_per_cycle::underflows            0      0.00%      0.00% # Number of insts commited each cycle
system.switch_cpus.commit.committed_per_cycle::0     13348547     79.29%     79.29% # Number of insts commited each cycle
system.switch_cpus.commit.committed_per_cycle::1       949837      5.64%     84.93% # Number of insts commited each cycle
system.switch_cpus.commit.committed_per_cycle::2       119813      0.71%     85.64% # Number of insts commited each cycle
system.switch_cpus.commit.committed_per_cycle::3       191922      1.14%     86.78% # Number of insts commited each cycle
system.switch_cpus.commit.committed_per_cycle::4       478737      2.84%     89.63% # Number of insts commited each cycle
system.switch_cpus.commit.committed_per_cycle::5       253719      1.51%     91.14% # Number of insts commited each cycle
system.switch_cpus.commit.committed_per_cycle::6        68938      0.41%     91.55% # Number of insts commited each cycle
system.switch_cpus.commit.committed_per_cycle::7        49556      0.29%     91.84% # Number of insts commited each cycle
system.switch_cpus.commit.committed_per_cycle::8      1373792      8.16%    100.00% # Number of insts commited each cycle
system.switch_cpus.commit.committed_per_cycle::overflows            0      0.00%    100.00% # Number of insts commited each cycle
system.switch_cpus.commit.committed_per_cycle::min_value            0                       # Number of insts commited each cycle
system.switch_cpus.commit.committed_per_cycle::max_value            8                       # Number of insts commited each cycle
system.switch_cpus.commit.committed_per_cycle::total     16834861                       # Number of insts commited each cycle
system.switch_cpus.commit.fp_insts            9250008                       # Number of committed floating point instructions.
system.switch_cpus.commit.function_calls        18108                       # Number of function calls committed.
system.switch_cpus.commit.int_insts           9386149                       # Number of committed integer instructions.
system.switch_cpus.commit.loads               2651089                       # Number of loads committed
system.switch_cpus.commit.membars                   0                       # Number of memory barriers committed
system.switch_cpus.commit.op_class_0::No_OpClass        28068      0.17%      0.17% # Class of committed instruction
system.switch_cpus.commit.op_class_0::IntAlu      7077496     42.38%     42.55% # Class of committed instruction
system.switch_cpus.commit.op_class_0::IntMult           15      0.00%     42.55% # Class of committed instruction
system.switch_cpus.commit.op_class_0::IntDiv           77      0.00%     42.55% # Class of committed instruction
system.switch_cpus.commit.op_class_0::FloatAdd       834706      5.00%     47.55% # Class of committed instruction
system.switch_cpus.commit.op_class_0::FloatCmp            0      0.00%     47.55% # Class of committed instruction
system.switch_cpus.commit.op_class_0::FloatCvt            0      0.00%     47.55% # Class of committed instruction
system.switch_cpus.commit.op_class_0::FloatMult            0      0.00%     47.55% # Class of committed instruction
system.switch_cpus.commit.op_class_0::FloatMultAcc            0      0.00%     47.55% # Class of committed instruction
system.switch_cpus.commit.op_class_0::FloatDiv            0      0.00%     47.55% # Class of committed instruction
system.switch_cpus.commit.op_class_0::FloatMisc            0      0.00%     47.55% # Class of committed instruction
system.switch_cpus.commit.op_class_0::FloatSqrt            0      0.00%     47.55% # Class of committed instruction
system.switch_cpus.commit.op_class_0::SimdAdd            0      0.00%     47.55% # Class of committed instruction
system.switch_cpus.commit.op_class_0::SimdAddAcc            0      0.00%     47.55% # Class of committed instruction
system.switch_cpus.commit.op_class_0::SimdAlu      1472440      8.82%     56.37% # Class of committed instruction
system.switch_cpus.commit.op_class_0::SimdCmp            0      0.00%     56.37% # Class of committed instruction
system.switch_cpus.commit.op_class_0::SimdCvt            6      0.00%     56.37% # Class of committed instruction
system.switch_cpus.commit.op_class_0::SimdMisc        40222      0.24%     56.61% # Class of committed instruction
system.switch_cpus.commit.op_class_0::SimdMult            0      0.00%     56.61% # Class of committed instruction
system.switch_cpus.commit.op_class_0::SimdMultAcc            0      0.00%     56.61% # Class of committed instruction
system.switch_cpus.commit.op_class_0::SimdShift            0      0.00%     56.61% # Class of committed instruction
system.switch_cpus.commit.op_class_0::SimdShiftAcc            0      0.00%     56.61% # Class of committed instruction
system.switch_cpus.commit.op_class_0::SimdDiv            0      0.00%     56.61% # Class of committed instruction
system.switch_cpus.commit.op_class_0::SimdSqrt            0      0.00%     56.61% # Class of committed instruction
system.switch_cpus.commit.op_class_0::SimdFloatAdd      1392117      8.34%     64.94% # Class of committed instruction
system.switch_cpus.commit.op_class_0::SimdFloatAlu            0      0.00%     64.94% # Class of committed instruction
system.switch_cpus.commit.op_class_0::SimdFloatCmp        20118      0.12%     65.06% # Class of committed instruction
system.switch_cpus.commit.op_class_0::SimdFloatCvt      1492478      8.94%     74.00% # Class of committed instruction
system.switch_cpus.commit.op_class_0::SimdFloatDiv            0      0.00%     74.00% # Class of committed instruction
system.switch_cpus.commit.op_class_0::SimdFloatMisc            0      0.00%     74.00% # Class of committed instruction
system.switch_cpus.commit.op_class_0::SimdFloatMult      1432276      8.58%     82.58% # Class of committed instruction
system.switch_cpus.commit.op_class_0::SimdFloatMultAcc            0      0.00%     82.58% # Class of committed instruction
system.switch_cpus.commit.op_class_0::SimdFloatSqrt            0      0.00%     82.58% # Class of committed instruction
system.switch_cpus.commit.op_class_0::SimdReduceAdd            0      0.00%     82.58% # Class of committed instruction
system.switch_cpus.commit.op_class_0::SimdReduceAlu            0      0.00%     82.58% # Class of committed instruction
system.switch_cpus.commit.op_class_0::SimdReduceCmp            0      0.00%     82.58% # Class of committed instruction
system.switch_cpus.commit.op_class_0::SimdFloatReduceAdd            0      0.00%     82.58% # Class of committed instruction
system.switch_cpus.commit.op_class_0::SimdFloatReduceCmp            0      0.00%     82.58% # Class of committed instruction
system.switch_cpus.commit.op_class_0::SimdAes            0      0.00%     82.58% # Class of committed instruction
system.switch_cpus.commit.op_class_0::SimdAesMix            0      0.00%     82.58% # Class of committed instruction
system.switch_cpus.commit.op_class_0::SimdSha1Hash            0      0.00%     82.58% # Class of committed instruction
system.switch_cpus.commit.op_class_0::SimdSha1Hash2            0      0.00%     82.58% # Class of committed instruction
system.switch_cpus.commit.op_class_0::SimdSha256Hash            0      0.00%     82.58% # Class of committed instruction
system.switch_cpus.commit.op_class_0::SimdSha256Hash2            0      0.00%     82.58% # Class of committed instruction
system.switch_cpus.commit.op_class_0::SimdShaSigma2            0      0.00%     82.58% # Class of committed instruction
system.switch_cpus.commit.op_class_0::SimdShaSigma3            0      0.00%     82.58% # Class of committed instruction
system.switch_cpus.commit.op_class_0::SimdPredAlu            0      0.00%     82.58% # Class of committed instruction
system.switch_cpus.commit.op_class_0::MemRead       789848      4.73%     87.31% # Class of committed instruction
system.switch_cpus.commit.op_class_0::MemWrite       194915      1.17%     88.47% # Class of committed instruction
system.switch_cpus.commit.op_class_0::FloatMemRead      1861241     11.15%     99.62% # Class of committed instruction
system.switch_cpus.commit.op_class_0::FloatMemWrite        63605      0.38%    100.00% # Class of committed instruction
system.switch_cpus.commit.op_class_0::IprAccess            0      0.00%    100.00% # Class of committed instruction
system.switch_cpus.commit.op_class_0::InstPrefetch            0      0.00%    100.00% # Class of committed instruction
system.switch_cpus.commit.op_class_0::total     16699628                       # Class of committed instruction
system.switch_cpus.commit.refs                2909609                       # Number of memory references committed
system.switch_cpus.commit.swp_count                 0                       # Number of s/w prefetches committed
system.switch_cpus.commit.vec_insts                 0                       # Number of committed Vector instructions.
system.switch_cpus.committedInsts            10000003                       # Number of Instructions Simulated
system.switch_cpus.committedOps              16699628                       # Number of Ops (including micro ops) Simulated
system.switch_cpus.cpi                       1.716918                       # CPI: Cycles Per Instruction
system.switch_cpus.cpi_total                 1.716918                       # CPI: Total CPI of All Threads
system.switch_cpus.decode.BlockedCycles      13304114                       # Number of cycles decode is blocked
system.switch_cpus.decode.DecodedInsts       19612530                       # Number of instructions handled by decode
system.switch_cpus.decode.IdleCycles          1010141                       # Number of cycles decode is idle
system.switch_cpus.decode.RunCycles           1892697                       # Number of cycles decode is running
system.switch_cpus.decode.SquashCycles          60741                       # Number of cycles decode is squashing
system.switch_cpus.decode.UnblockCycles        875152                       # Number of cycles decode is unblocking
system.switch_cpus.dtb.rdAccesses             3015723                       # TLB accesses on read requests
system.switch_cpus.dtb.rdMisses                 10872                       # TLB misses on read requests
system.switch_cpus.dtb.wrAccesses              287531                       # TLB accesses on write requests
system.switch_cpus.dtb.wrMisses                   601                       # TLB misses on write requests
system.switch_cpus.fetch.Branches             1324628                       # Number of branches that fetch encountered
system.switch_cpus.fetch.CacheLines           1490080                       # Number of cache lines fetched
system.switch_cpus.fetch.Cycles              15547228                       # Number of cycles fetch has run and was not squashing or blocked
system.switch_cpus.fetch.IcacheSquashes         12372                       # Number of outstanding Icache misses that were squashed
system.switch_cpus.fetch.Insts               12377262                       # Number of instructions fetch has processed
system.switch_cpus.fetch.MiscStallCycles           65                       # Number of cycles fetch has spent waiting on interrupts, or bad addresses, or out of MSHRs
system.switch_cpus.fetch.PendingTrapStallCycles         1671                       # Number of stall cycles due to pending traps
system.switch_cpus.fetch.SquashCycles          121482                       # Number of cycles fetch has spent squashing
system.switch_cpus.fetch.branchRate          0.077151                       # Number of branch fetches per cycle
system.switch_cpus.fetch.icacheStallCycles      1533141                       # Number of cycles fetch is stalled on an Icache miss
system.switch_cpus.fetch.predictedBranches       975085                       # Number of branches that fetch has predicted taken
system.switch_cpus.fetch.rate                0.720900                       # Number of inst fetches per cycle
system.switch_cpus.fetch.rateDist::samples     17142846                       # Number of instructions fetched each cycle (Total)
system.switch_cpus.fetch.rateDist::mean      1.210295                       # Number of instructions fetched each cycle (Total)
system.switch_cpus.fetch.rateDist::stdev     2.623114                       # Number of instructions fetched each cycle (Total)
system.switch_cpus.fetch.rateDist::underflows            0      0.00%      0.00% # Number of instructions fetched each cycle (Total)
system.switch_cpus.fetch.rateDist::0         13614374     79.42%     79.42% # Number of instructions fetched each cycle (Total)
system.switch_cpus.fetch.rateDist::1           311212      1.82%     81.23% # Number of instructions fetched each cycle (Total)
system.switch_cpus.fetch.rateDist::2           186623      1.09%     82.32% # Number of instructions fetched each cycle (Total)
system.switch_cpus.fetch.rateDist::3           216141      1.26%     83.58% # Number of instructions fetched each cycle (Total)
system.switch_cpus.fetch.rateDist::4           327384      1.91%     85.49% # Number of instructions fetched each cycle (Total)
system.switch_cpus.fetch.rateDist::5           276761      1.61%     87.11% # Number of instructions fetched each cycle (Total)
system.switch_cpus.fetch.rateDist::6           430275      2.51%     89.62% # Number of instructions fetched each cycle (Total)
system.switch_cpus.fetch.rateDist::7           100572      0.59%     90.20% # Number of instructions fetched each cycle (Total)
system.switch_cpus.fetch.rateDist::8          1679504      9.80%    100.00% # Number of instructions fetched each cycle (Total)
system.switch_cpus.fetch.rateDist::overflows            0      0.00%    100.00% # Number of instructions fetched each cycle (Total)
system.switch_cpus.fetch.rateDist::min_value            0                       # Number of instructions fetched each cycle (Total)
system.switch_cpus.fetch.rateDist::max_value            8                       # Number of instructions fetched each cycle (Total)
system.switch_cpus.fetch.rateDist::total     17142846                       # Number of instructions fetched each cycle (Total)
system.switch_cpus.fp_regfile_reads          16017985                       # number of floating regfile reads
system.switch_cpus.fp_regfile_writes          9300859                       # number of floating regfile writes
system.switch_cpus.idleCycles                   26336                       # Total number of cycles that the CPU has spent unscheduled due to idling
system.switch_cpus.iew.branchMispredicts        67618                       # Number of branch mispredicts detected at execute
system.switch_cpus.iew.exec_branches          1087375                       # Number of branches executed
system.switch_cpus.iew.exec_nop                     0                       # number of nop insts executed
system.switch_cpus.iew.exec_rate             1.055368                       # Inst execution rate
system.switch_cpus.iew.exec_refs              3332574                       # number of memory reference insts executed
system.switch_cpus.iew.exec_stores             287522                       # Number of stores executed
system.switch_cpus.iew.exec_swp                     0                       # number of swp insts executed
system.switch_cpus.iew.iewBlockCycles         7313220                       # Number of cycles IEW is blocking
system.switch_cpus.iew.iewDispLoadInsts       3068055                       # Number of dispatched load instructions
system.switch_cpus.iew.iewDispNonSpecInsts            0                       # Number of dispatched non-speculative instructions
system.switch_cpus.iew.iewDispSquashedInsts         5120                       # Number of squashed instructions skipped by dispatch
system.switch_cpus.iew.iewDispStoreInsts       324278                       # Number of dispatched store instructions
system.switch_cpus.iew.iewDispatchedInsts     18877678                       # Number of instructions dispatched to IQ
system.switch_cpus.iew.iewExecLoadInsts       3045052                       # Number of load instructions executed
system.switch_cpus.iew.iewExecSquashedInsts       110804                       # Number of squashed instructions skipped in execute
system.switch_cpus.iew.iewExecutedInsts      18119803                       # Number of executed instructions
system.switch_cpus.iew.iewIQFullEvents          79506                       # Number of times the IQ has become full, causing a stall
system.switch_cpus.iew.iewIdleCycles                0                       # Number of cycles IEW is idle
system.switch_cpus.iew.iewLSQFullEvents        713140                       # Number of times the LSQ has become full, causing a stall
system.switch_cpus.iew.iewSquashCycles          60741                       # Number of cycles IEW is squashing
system.switch_cpus.iew.iewUnblockCycles        840998                       # Number of cycles IEW is unblocking
system.switch_cpus.iew.lsq.thread0.blockedLoads            0                       # Number of blocked loads due to partial load-store forwarding
system.switch_cpus.iew.lsq.thread0.cacheBlocked        20974                       # Number of times an access to memory failed due to the cache being blocked
system.switch_cpus.iew.lsq.thread0.forwLoads        38067                       # Number of loads that had data forwarded from stores
system.switch_cpus.iew.lsq.thread0.ignoredResponses          226                       # Number of memory responses ignored because the instruction is squashed
system.switch_cpus.iew.lsq.thread0.invAddrLoads            0                       # Number of loads ignored due to an invalid address
system.switch_cpus.iew.lsq.thread0.invAddrSwpfs            0                       # Number of software prefetches ignored due to an invalid address
system.switch_cpus.iew.lsq.thread0.memOrderViolation          200                       # Number of memory ordering violations
system.switch_cpus.iew.lsq.thread0.rescheduledLoads           39                       # Number of loads that were rescheduled
system.switch_cpus.iew.lsq.thread0.squashedLoads       416944                       # Number of loads squashed
system.switch_cpus.iew.lsq.thread0.squashedStores        65756                       # Number of stores squashed
system.switch_cpus.iew.memOrderViolationEvents          200                       # Number of memory order violations
system.switch_cpus.iew.predictedNotTakenIncorrect        19915                       # Number of branches that were predicted not taken incorrectly
system.switch_cpus.iew.predictedTakenIncorrect        47703                       # Number of branches that were predicted taken incorrectly
system.switch_cpus.iew.wb_consumers          23644292                       # num instructions consuming a value
system.switch_cpus.iew.wb_count              17892188                       # cumulative count of insts written-back
system.switch_cpus.iew.wb_fanout             0.589552                       # average fanout of values written-back
system.switch_cpus.iew.wb_producers          13939548                       # num instructions producing a value
system.switch_cpus.iew.wb_rate               1.042111                       # insts written-back per cycle
system.switch_cpus.iew.wb_sent               17917602                       # cumulative count of insts sent to commit
system.switch_cpus.int_regfile_reads         15389728                       # number of integer regfile reads
system.switch_cpus.int_regfile_writes         7185166                       # number of integer regfile writes
system.switch_cpus.ipc                       0.582439                       # IPC: Instructions Per Cycle
system.switch_cpus.ipc_total                 0.582439                       # IPC: Total IPC of All Threads
system.switch_cpus.iq.FU_type_0::No_OpClass        35689      0.20%      0.20% # Type of FU issued
system.switch_cpus.iq.FU_type_0::IntAlu       7990682     43.83%     44.03% # Type of FU issued
system.switch_cpus.iq.FU_type_0::IntMult           27      0.00%     44.03% # Type of FU issued
system.switch_cpus.iq.FU_type_0::IntDiv            80      0.00%     44.03% # Type of FU issued
system.switch_cpus.iq.FU_type_0::FloatAdd       898682      4.93%     48.96% # Type of FU issued
system.switch_cpus.iq.FU_type_0::FloatCmp            0      0.00%     48.96% # Type of FU issued
system.switch_cpus.iq.FU_type_0::FloatCvt            0      0.00%     48.96% # Type of FU issued
system.switch_cpus.iq.FU_type_0::FloatMult            0      0.00%     48.96% # Type of FU issued
system.switch_cpus.iq.FU_type_0::FloatMultAcc            0      0.00%     48.96% # Type of FU issued
system.switch_cpus.iq.FU_type_0::FloatDiv            0      0.00%     48.96% # Type of FU issued
system.switch_cpus.iq.FU_type_0::FloatMisc            0      0.00%     48.96% # Type of FU issued
system.switch_cpus.iq.FU_type_0::FloatSqrt            0      0.00%     48.96% # Type of FU issued
system.switch_cpus.iq.FU_type_0::SimdAdd            0      0.00%     48.96% # Type of FU issued
system.switch_cpus.iq.FU_type_0::SimdAddAcc            0      0.00%     48.96% # Type of FU issued
system.switch_cpus.iq.FU_type_0::SimdAlu      1536623      8.43%     57.39% # Type of FU issued
system.switch_cpus.iq.FU_type_0::SimdCmp            0      0.00%     57.39% # Type of FU issued
system.switch_cpus.iq.FU_type_0::SimdCvt           14      0.00%     57.39% # Type of FU issued
system.switch_cpus.iq.FU_type_0::SimdMisc        41303      0.23%     57.61% # Type of FU issued
system.switch_cpus.iq.FU_type_0::SimdMult            0      0.00%     57.61% # Type of FU issued
system.switch_cpus.iq.FU_type_0::SimdMultAcc            0      0.00%     57.61% # Type of FU issued
system.switch_cpus.iq.FU_type_0::SimdShift            0      0.00%     57.61% # Type of FU issued
system.switch_cpus.iq.FU_type_0::SimdShiftAcc            0      0.00%     57.61% # Type of FU issued
system.switch_cpus.iq.FU_type_0::SimdDiv            0      0.00%     57.61% # Type of FU issued
system.switch_cpus.iq.FU_type_0::SimdSqrt            0      0.00%     57.61% # Type of FU issued
system.switch_cpus.iq.FU_type_0::SimdFloatAdd      1394849      7.65%     65.26% # Type of FU issued
system.switch_cpus.iq.FU_type_0::SimdFloatAlu            0      0.00%     65.26% # Type of FU issued
system.switch_cpus.iq.FU_type_0::SimdFloatCmp        20122      0.11%     65.37% # Type of FU issued
system.switch_cpus.iq.FU_type_0::SimdFloatCvt      1498808      8.22%     73.60% # Type of FU issued
system.switch_cpus.iq.FU_type_0::SimdFloatDiv            0      0.00%     73.60% # Type of FU issued
system.switch_cpus.iq.FU_type_0::SimdFloatMisc            0      0.00%     73.60% # Type of FU issued
system.switch_cpus.iq.FU_type_0::SimdFloatMult      1436004      7.88%     81.47% # Type of FU issued
system.switch_cpus.iq.FU_type_0::SimdFloatMultAcc            0      0.00%     81.47% # Type of FU issued
system.switch_cpus.iq.FU_type_0::SimdFloatSqrt            0      0.00%     81.47% # Type of FU issued
system.switch_cpus.iq.FU_type_0::SimdReduceAdd            0      0.00%     81.47% # Type of FU issued
system.switch_cpus.iq.FU_type_0::SimdReduceAlu            0      0.00%     81.47% # Type of FU issued
system.switch_cpus.iq.FU_type_0::SimdReduceCmp            0      0.00%     81.47% # Type of FU issued
system.switch_cpus.iq.FU_type_0::SimdFloatReduceAdd            0      0.00%     81.47% # Type of FU issued
system.switch_cpus.iq.FU_type_0::SimdFloatReduceCmp            0      0.00%     81.47% # Type of FU issued
system.switch_cpus.iq.FU_type_0::SimdAes            0      0.00%     81.47% # Type of FU issued
system.switch_cpus.iq.FU_type_0::SimdAesMix            0      0.00%     81.47% # Type of FU issued
system.switch_cpus.iq.FU_type_0::SimdSha1Hash            0      0.00%     81.47% # Type of FU issued
system.switch_cpus.iq.FU_type_0::SimdSha1Hash2            0      0.00%     81.47% # Type of FU issued
system.switch_cpus.iq.FU_type_0::SimdSha256Hash            0      0.00%     81.47% # Type of FU issued
system.switch_cpus.iq.FU_type_0::SimdSha256Hash2            0      0.00%     81.47% # Type of FU issued
system.switch_cpus.iq.FU_type_0::SimdShaSigma2            0      0.00%     81.47% # Type of FU issued
system.switch_cpus.iq.FU_type_0::SimdShaSigma3            0      0.00%     81.47% # Type of FU issued
system.switch_cpus.iq.FU_type_0::SimdPredAlu            0      0.00%     81.47% # Type of FU issued
system.switch_cpus.iq.FU_type_0::MemRead      1073410      5.89%     87.36% # Type of FU issued
system.switch_cpus.iq.FU_type_0::MemWrite       228191      1.25%     88.61% # Type of FU issued
system.switch_cpus.iq.FU_type_0::FloatMemRead      2012087     11.04%     99.65% # Type of FU issued
system.switch_cpus.iq.FU_type_0::FloatMemWrite        64042      0.35%    100.00% # Type of FU issued
system.switch_cpus.iq.FU_type_0::IprAccess            0      0.00%    100.00% # Type of FU issued
system.switch_cpus.iq.FU_type_0::InstPrefetch            0      0.00%    100.00% # Type of FU issued
system.switch_cpus.iq.FU_type_0::total       18230613                       # Type of FU issued
system.switch_cpus.iq.fp_alu_accesses         9747781                       # Number of floating point alu accesses
system.switch_cpus.iq.fp_inst_queue_reads     19313344                       # Number of floating instruction queue reads
system.switch_cpus.iq.fp_inst_queue_wakeup_accesses      9413262                       # Number of floating instruction queue wakeup accesses
system.switch_cpus.iq.fp_inst_queue_writes     10134308                       # Number of floating instruction queue writes
system.switch_cpus.iq.fu_busy_cnt              317498                       # FU busy when requested
system.switch_cpus.iq.fu_busy_rate           0.017416                       # FU busy rate (busy events/executed inst)
system.switch_cpus.iq.fu_full::No_OpClass            0      0.00%      0.00% # attempts to use FU when none available
system.switch_cpus.iq.fu_full::IntAlu          108053     34.03%     34.03% # attempts to use FU when none available
system.switch_cpus.iq.fu_full::IntMult              0      0.00%     34.03% # attempts to use FU when none available
system.switch_cpus.iq.fu_full::IntDiv               0      0.00%     34.03% # attempts to use FU when none available
system.switch_cpus.iq.fu_full::FloatAdd             0      0.00%     34.03% # attempts to use FU when none available
system.switch_cpus.iq.fu_full::FloatCmp             0      0.00%     34.03% # attempts to use FU when none available
system.switch_cpus.iq.fu_full::FloatCvt             0      0.00%     34.03% # attempts to use FU when none available
system.switch_cpus.iq.fu_full::FloatMult            0      0.00%     34.03% # attempts to use FU when none available
system.switch_cpus.iq.fu_full::FloatMultAcc            0      0.00%     34.03% # attempts to use FU when none available
system.switch_cpus.iq.fu_full::FloatDiv             0      0.00%     34.03% # attempts to use FU when none available
system.switch_cpus.iq.fu_full::FloatMisc            0      0.00%     34.03% # attempts to use FU when none available
system.switch_cpus.iq.fu_full::FloatSqrt            0      0.00%     34.03% # attempts to use FU when none available
system.switch_cpus.iq.fu_full::SimdAdd              0      0.00%     34.03% # attempts to use FU when none available
system.switch_cpus.iq.fu_full::SimdAddAcc            0      0.00%     34.03% # attempts to use FU when none available
system.switch_cpus.iq.fu_full::SimdAlu          52508     16.54%     50.57% # attempts to use FU when none available
system.switch_cpus.iq.fu_full::SimdCmp              0      0.00%     50.57% # attempts to use FU when none available
system.switch_cpus.iq.fu_full::SimdCvt              0      0.00%     50.57% # attempts to use FU when none available
system.switch_cpus.iq.fu_full::SimdMisc             0      0.00%     50.57% # attempts to use FU when none available
system.switch_cpus.iq.fu_full::SimdMult             0      0.00%     50.57% # attempts to use FU when none available
system.switch_cpus.iq.fu_full::SimdMultAcc            0      0.00%     50.57% # attempts to use FU when none available
system.switch_cpus.iq.fu_full::SimdShift            0      0.00%     50.57% # attempts to use FU when none available
system.switch_cpus.iq.fu_full::SimdShiftAcc            0      0.00%     50.57% # attempts to use FU when none available
system.switch_cpus.iq.fu_full::SimdDiv              0      0.00%     50.57% # attempts to use FU when none available
system.switch_cpus.iq.fu_full::SimdSqrt             0      0.00%     50.57% # attempts to use FU when none available
system.switch_cpus.iq.fu_full::SimdFloatAdd        71526     22.53%     73.10% # attempts to use FU when none available
system.switch_cpus.iq.fu_full::SimdFloatAlu            0      0.00%     73.10% # attempts to use FU when none available
system.switch_cpus.iq.fu_full::SimdFloatCmp            0      0.00%     73.10% # attempts to use FU when none available
system.switch_cpus.iq.fu_full::SimdFloatCvt        19657      6.19%     79.29% # attempts to use FU when none available
system.switch_cpus.iq.fu_full::SimdFloatDiv            0      0.00%     79.29% # attempts to use FU when none available
system.switch_cpus.iq.fu_full::SimdFloatMisc            0      0.00%     79.29% # attempts to use FU when none available
system.switch_cpus.iq.fu_full::SimdFloatMult         4106      1.29%     80.58% # attempts to use FU when none available
system.switch_cpus.iq.fu_full::SimdFloatMultAcc            0      0.00%     80.58% # attempts to use FU when none available
system.switch_cpus.iq.fu_full::SimdFloatSqrt            0      0.00%     80.58% # attempts to use FU when none available
system.switch_cpus.iq.fu_full::SimdReduceAdd            0      0.00%     80.58% # attempts to use FU when none available
system.switch_cpus.iq.fu_full::SimdReduceAlu            0      0.00%     80.58% # attempts to use FU when none available
system.switch_cpus.iq.fu_full::SimdReduceCmp            0      0.00%     80.58% # attempts to use FU when none available
system.switch_cpus.iq.fu_full::SimdFloatReduceAdd            0      0.00%     80.58% # attempts to use FU when none available
system.switch_cpus.iq.fu_full::SimdFloatReduceCmp            0      0.00%     80.58% # attempts to use FU when none available
system.switch_cpus.iq.fu_full::SimdAes              0      0.00%     80.58% # attempts to use FU when none available
system.switch_cpus.iq.fu_full::SimdAesMix            0      0.00%     80.58% # attempts to use FU when none available
system.switch_cpus.iq.fu_full::SimdSha1Hash            0      0.00%     80.58% # attempts to use FU when none available
system.switch_cpus.iq.fu_full::SimdSha1Hash2            0      0.00%     80.58% # attempts to use FU when none available
system.switch_cpus.iq.fu_full::SimdSha256Hash            0      0.00%     80.58% # attempts to use FU when none available
system.switch_cpus.iq.fu_full::SimdSha256Hash2            0      0.00%     80.58% # attempts to use FU when none available
system.switch_cpus.iq.fu_full::SimdShaSigma2            0      0.00%     80.58% # attempts to use FU when none available
system.switch_cpus.iq.fu_full::SimdShaSigma3            0      0.00%     80.58% # attempts to use FU when none available
system.switch_cpus.iq.fu_full::SimdPredAlu            0      0.00%     80.58% # attempts to use FU when none available
system.switch_cpus.iq.fu_full::MemRead          20782      6.55%     87.13% # attempts to use FU when none available
system.switch_cpus.iq.fu_full::MemWrite          4468      1.41%     88.54% # attempts to use FU when none available
system.switch_cpus.iq.fu_full::FloatMemRead        36350     11.45%     99.98% # attempts to use FU when none available
system.switch_cpus.iq.fu_full::FloatMemWrite           48      0.02%    100.00% # attempts to use FU when none available
system.switch_cpus.iq.fu_full::IprAccess            0      0.00%    100.00% # attempts to use FU when none available
system.switch_cpus.iq.fu_full::InstPrefetch            0      0.00%    100.00% # attempts to use FU when none available
system.switch_cpus.iq.int_alu_accesses        8764641                       # Number of integer alu accesses
system.switch_cpus.iq.int_inst_queue_reads     34641029                       # Number of integer instruction queue reads
system.switch_cpus.iq.int_inst_queue_wakeup_accesses      8478926                       # Number of integer instruction queue wakeup accesses
system.switch_cpus.iq.int_inst_queue_writes     10921486                       # Number of integer instruction queue writes
system.switch_cpus.iq.iqInstsAdded           18877678                       # Number of instructions added to the IQ (excludes non-spec)
system.switch_cpus.iq.iqInstsIssued          18230613                       # Number of instructions issued
system.switch_cpus.iq.iqSquashedInstsExamined      2177918                       # Number of squashed instructions iterated over during squash; mainly for profiling
system.switch_cpus.iq.iqSquashedInstsIssued        32809                       # Number of squashed instructions issued
system.switch_cpus.iq.iqSquashedOperandsExamined      3275470                       # Number of squashed operands that are examined and possibly removed from graph
system.switch_cpus.iq.issued_per_cycle::samples     17142846                       # Number of insts issued each cycle
system.switch_cpus.iq.issued_per_cycle::mean     1.063453                       # Number of insts issued each cycle
system.switch_cpus.iq.issued_per_cycle::stdev     1.914791                       # Number of insts issued each cycle
system.switch_cpus.iq.issued_per_cycle::underflows            0      0.00%      0.00% # Number of insts issued each cycle
system.switch_cpus.iq.issued_per_cycle::0     11552897     67.39%     67.39% # Number of insts issued each cycle
system.switch_cpus.iq.issued_per_cycle::1      1407272      8.21%     75.60% # Number of insts issued each cycle
system.switch_cpus.iq.issued_per_cycle::2      1058163      6.17%     81.77% # Number of insts issued each cycle
system.switch_cpus.iq.issued_per_cycle::3       888724      5.18%     86.96% # Number of insts issued each cycle
system.switch_cpus.iq.issued_per_cycle::4       756492      4.41%     91.37% # Number of insts issued each cycle
system.switch_cpus.iq.issued_per_cycle::5       534666      3.12%     94.49% # Number of insts issued each cycle
system.switch_cpus.iq.issued_per_cycle::6       453808      2.65%     97.14% # Number of insts issued each cycle
system.switch_cpus.iq.issued_per_cycle::7       307895      1.80%     98.93% # Number of insts issued each cycle
system.switch_cpus.iq.issued_per_cycle::8       182929      1.07%    100.00% # Number of insts issued each cycle
system.switch_cpus.iq.issued_per_cycle::overflows            0      0.00%    100.00% # Number of insts issued each cycle
system.switch_cpus.iq.issued_per_cycle::min_value            0                       # Number of insts issued each cycle
system.switch_cpus.iq.issued_per_cycle::max_value            8                       # Number of insts issued each cycle
system.switch_cpus.iq.issued_per_cycle::total     17142846                       # Number of insts issued each cycle
system.switch_cpus.iq.rate                   1.061822                       # Inst issue rate
system.switch_cpus.iq.vec_alu_accesses              0                       # Number of vector alu accesses
system.switch_cpus.iq.vec_inst_queue_reads            0                       # Number of vector instruction queue reads
system.switch_cpus.iq.vec_inst_queue_wakeup_accesses            0                       # Number of vector instruction queue wakeup accesses
system.switch_cpus.iq.vec_inst_queue_writes            0                       # Number of vector instruction queue writes
system.switch_cpus.itb.rdAccesses                   0                       # TLB accesses on read requests
system.switch_cpus.itb.rdMisses                     0                       # TLB misses on read requests
system.switch_cpus.itb.wrAccesses             1490345                       # TLB accesses on write requests
system.switch_cpus.itb.wrMisses                   302                       # TLB misses on write requests
system.switch_cpus.memDep0.conflictingLoads        43125                       # Number of conflicting loads.
system.switch_cpus.memDep0.conflictingStores        15622                       # Number of conflicting stores.
system.switch_cpus.memDep0.insertedLoads      3068055                       # Number of loads inserted to the mem dependence unit.
system.switch_cpus.memDep0.insertedStores       324278                       # Number of stores inserted to the mem dependence unit.
system.switch_cpus.misc_regfile_reads         5595475                       # number of misc regfile reads
system.switch_cpus.misc_regfile_writes              1                       # number of misc regfile writes
system.switch_cpus.numCycles                 17169182                       # number of cpu cycles simulated
system.switch_cpus.numWorkItemsCompleted            0                       # number of work items this cpu completed
system.switch_cpus.numWorkItemsStarted              0                       # number of work items this cpu started
system.switch_cpus.rename.BlockCycles        10540357                       # Number of cycles rename is blocking
system.switch_cpus.rename.CommittedMaps      19126939                       # Number of HB maps that are committed
system.switch_cpus.rename.IQFullEvents        1505135                       # Number of times rename has blocked due to IQ full
system.switch_cpus.rename.IdleCycles          1364762                       # Number of cycles rename is idle
system.switch_cpus.rename.LQFullEvents         362327                       # Number of times rename has blocked due to LQ full
system.switch_cpus.rename.ROBFullEvents        124775                       # Number of times rename has blocked due to ROB full
system.switch_cpus.rename.RenameLookups      46922597                       # Number of register rename lookups that rename has made
system.switch_cpus.rename.RenamedInsts       19327840                       # Number of instructions processed by rename
system.switch_cpus.rename.RenamedOperands     22270378                       # Number of destination operands rename has renamed
system.switch_cpus.rename.RunCycles           2358567                       # Number of cycles rename is running
system.switch_cpus.rename.SQFullEvents         674018                       # Number of times rename has blocked due to SQ full
system.switch_cpus.rename.SquashCycles          60741                       # Number of cycles rename is squashing
system.switch_cpus.rename.UnblockCycles       2818418                       # Number of cycles rename is unblocking
system.switch_cpus.rename.UndoneMaps          3143281                       # Number of HB maps that are undone due to squashing
system.switch_cpus.rename.fp_rename_lookups     16832482                       # Number of floating rename lookups
system.switch_cpus.rename.int_rename_lookups     17000899                       # Number of integer rename lookups
system.switch_cpus.rename.serializeStallCycles            0                       # count of cycles rename stalled for serializing inst
system.switch_cpus.rename.serializingInsts            0                       # count of serializing insts renamed
system.switch_cpus.rename.skidInsts           4545422                       # count of insts added to the skid buffer
system.switch_cpus.rename.tempSerializingInsts            0                       # count of temporary serializing insts renamed
system.switch_cpus.rob.rob_reads             34340568                       # The number of ROB reads
system.switch_cpus.rob.rob_writes            38067709                       # The number of ROB writes
system.switch_cpus.timesIdled                     325                       # Number of times that the entire CPU went into an idle state and unscheduled itself
system.tol2bus.snoop_filter.hit_multi_requests            0                       # Number of requests hitting in the snoop filter with multiple (>1) holders of the requested data.
system.tol2bus.snoop_filter.hit_multi_snoops            0                       # Number of snoops hitting in the snoop filter with multiple (>1) holders of the requested data.
system.tol2bus.snoop_filter.hit_single_requests       183558                       # Number of requests hitting in the snoop filter with a single holder of the requested data.
system.tol2bus.snoop_filter.hit_single_snoops          525                       # Number of snoops hitting in the snoop filter with a single holder of the requested data.
system.tol2bus.snoop_filter.tot_requests       368424                       # Total number of requests made to the snoop filter.
system.tol2bus.snoop_filter.tot_snoops            525                       # Total number of snoops made to the snoop filter.
system.membus.pwrStateResidencyTicks::UNDEFINED 270775864655000                       # Cumulative time (in ticks) in various power states
system.membus.trans_dist::ReadResp             142184                       # Transaction distribution
system.membus.trans_dist::WritebackDirty        15153                       # Transaction distribution
system.membus.trans_dist::CleanEvict           129709                       # Transaction distribution
system.membus.trans_dist::ReadExReq             11156                       # Transaction distribution
system.membus.trans_dist::ReadExResp            11156                       # Transaction distribution
system.membus.trans_dist::ReadSharedReq        142185                       # Transaction distribution
system.membus.pkt_count_system.l2.mem_side::system.mem_ctrls.port       451543                       # Packet count per connected master and slave (bytes)
system.membus.pkt_count_system.l2.mem_side::total       451543                       # Packet count per connected master and slave (bytes)
system.membus.pkt_count::total                 451543                       # Packet count per connected master and slave (bytes)
system.membus.pkt_size_system.l2.mem_side::system.mem_ctrls.port     10783552                       # Cumulative packet size per connected master and slave (bytes)
system.membus.pkt_size_system.l2.mem_side::total     10783552                       # Cumulative packet size per connected master and slave (bytes)
system.membus.pkt_size::total                10783552                       # Cumulative packet size per connected master and slave (bytes)
system.membus.snoops                                0                       # Total snoops (count)
system.membus.snoopTraffic                          0                       # Total snoop traffic (bytes)
system.membus.snoop_fanout::samples            153341                       # Request fanout histogram
system.membus.snoop_fanout::mean                    0                       # Request fanout histogram
system.membus.snoop_fanout::stdev                   0                       # Request fanout histogram
system.membus.snoop_fanout::underflows              0      0.00%      0.00% # Request fanout histogram
system.membus.snoop_fanout::0                  153341    100.00%    100.00% # Request fanout histogram
system.membus.snoop_fanout::1                       0      0.00%    100.00% # Request fanout histogram
system.membus.snoop_fanout::overflows               0      0.00%    100.00% # Request fanout histogram
system.membus.snoop_fanout::min_value               0                       # Request fanout histogram
system.membus.snoop_fanout::max_value               0                       # Request fanout histogram
system.membus.snoop_fanout::total              153341                       # Request fanout histogram
system.membus.reqLayer2.occupancy           390054000                       # Layer occupancy (ticks)
system.membus.reqLayer2.utilization               4.5                       # Layer utilization (%)
system.membus.respLayer1.occupancy          818879500                       # Layer occupancy (ticks)
system.membus.respLayer1.utilization              9.5                       # Layer utilization (%)
system.switch_cpus.pwrStateResidencyTicks::OFF   8584601250                       # Cumulative time (in ticks) in various power states
system.switch_cpus.dtb.walker.pwrStateResidencyTicks::UNDEFINED 270775864655000                       # Cumulative time (in ticks) in various power states
system.switch_cpus.itb.walker.pwrStateResidencyTicks::UNDEFINED 270775864655000                       # Cumulative time (in ticks) in various power states
system.tol2bus.pwrStateResidencyTicks::UNDEFINED 270775864655000                       # Cumulative time (in ticks) in various power states
system.tol2bus.trans_dist::ReadResp            172525                       # Transaction distribution
system.tol2bus.trans_dist::WritebackDirty        47093                       # Transaction distribution
system.tol2bus.trans_dist::WritebackClean          174                       # Transaction distribution
system.tol2bus.trans_dist::CleanEvict          281644                       # Transaction distribution
system.tol2bus.trans_dist::ReadExReq            12340                       # Transaction distribution
system.tol2bus.trans_dist::ReadExResp           12340                       # Transaction distribution
system.tol2bus.trans_dist::ReadCleanReq           457                       # Transaction distribution
system.tol2bus.trans_dist::ReadSharedReq       172069                       # Transaction distribution
system.tol2bus.pkt_count_system.cpu.icache.mem_side::system.l2.cpu_side         1088                       # Packet count per connected master and slave (bytes)
system.tol2bus.pkt_count_system.cpu.dcache.mem_side::system.l2.cpu_side       552201                       # Packet count per connected master and slave (bytes)
system.tol2bus.pkt_count::total                553289                       # Packet count per connected master and slave (bytes)
system.tol2bus.pkt_size_system.cpu.icache.mem_side::system.l2.cpu_side        40384                       # Cumulative packet size per connected master and slave (bytes)
system.tol2bus.pkt_size_system.cpu.dcache.mem_side::system.l2.cpu_side     13846272                       # Cumulative packet size per connected master and slave (bytes)
system.tol2bus.pkt_size::total               13886656                       # Cumulative packet size per connected master and slave (bytes)
system.tol2bus.snoops                          145353                       # Total snoops (count)
system.tol2bus.snoopTraffic                    969792                       # Total snoop traffic (bytes)
system.tol2bus.snoop_fanout::samples           330219                       # Request fanout histogram
system.tol2bus.snoop_fanout::mean            0.001590                       # Request fanout histogram
system.tol2bus.snoop_fanout::stdev           0.039841                       # Request fanout histogram
system.tol2bus.snoop_fanout::underflows             0      0.00%      0.00% # Request fanout histogram
system.tol2bus.snoop_fanout::0                 329694     99.84%     99.84% # Request fanout histogram
system.tol2bus.snoop_fanout::1                    525      0.16%    100.00% # Request fanout histogram
system.tol2bus.snoop_fanout::2                      0      0.00%    100.00% # Request fanout histogram
system.tol2bus.snoop_fanout::3                      0      0.00%    100.00% # Request fanout histogram
system.tol2bus.snoop_fanout::4                      0      0.00%    100.00% # Request fanout histogram
system.tol2bus.snoop_fanout::overflows              0      0.00%    100.00% # Request fanout histogram
system.tol2bus.snoop_fanout::min_value              0                       # Request fanout histogram
system.tol2bus.snoop_fanout::max_value              1                       # Request fanout histogram
system.tol2bus.snoop_fanout::total             330219                       # Request fanout histogram
system.tol2bus.reqLayer0.occupancy          216323500                       # Layer occupancy (ticks)
system.tol2bus.reqLayer0.utilization              2.5                       # Layer utilization (%)
system.tol2bus.respLayer1.occupancy         276607500                       # Layer occupancy (ticks)
system.tol2bus.respLayer1.utilization             3.2                       # Layer utilization (%)
system.tol2bus.respLayer0.occupancy            682999                       # Layer occupancy (ticks)
system.tol2bus.respLayer0.utilization             0.0                       # Layer utilization (%)
system.voltage_domain.voltage                       1                       # Voltage in Volts
system.clk_domain.clock                          1000                       # Clock period in ticks
system.l2.pwrStateResidencyTicks::UNDEFINED 270775864655000                       # Cumulative time (in ticks) in various power states
system.l2.demand_hits::.switch_cpus.inst           55                       # number of demand (read+write) hits
system.l2.demand_hits::.switch_cpus.data        31470                       # number of demand (read+write) hits
system.l2.demand_hits::total                    31525                       # number of demand (read+write) hits
system.l2.overall_hits::.switch_cpus.inst           55                       # number of overall hits
system.l2.overall_hits::.switch_cpus.data        31470                       # number of overall hits
system.l2.overall_hits::total                   31525                       # number of overall hits
system.l2.demand_misses::.cpu.inst                  2                       # number of demand (read+write) misses
system.l2.demand_misses::.cpu.data                  3                       # number of demand (read+write) misses
system.l2.demand_misses::.switch_cpus.inst          400                       # number of demand (read+write) misses
system.l2.demand_misses::.switch_cpus.data       152936                       # number of demand (read+write) misses
system.l2.demand_misses::total                 153341                       # number of demand (read+write) misses
system.l2.overall_misses::.cpu.inst                 2                       # number of overall misses
system.l2.overall_misses::.cpu.data                 3                       # number of overall misses
system.l2.overall_misses::.switch_cpus.inst          400                       # number of overall misses
system.l2.overall_misses::.switch_cpus.data       152936                       # number of overall misses
system.l2.overall_misses::total                153341                       # number of overall misses
system.l2.demand_miss_latency::.switch_cpus.inst     34558500                       # number of demand (read+write) miss cycles
system.l2.demand_miss_latency::.switch_cpus.data  12463062500                       # number of demand (read+write) miss cycles
system.l2.demand_miss_latency::total      12497621000                       # number of demand (read+write) miss cycles
system.l2.overall_miss_latency::.switch_cpus.inst     34558500                       # number of overall miss cycles
system.l2.overall_miss_latency::.switch_cpus.data  12463062500                       # number of overall miss cycles
system.l2.overall_miss_latency::total     12497621000                       # number of overall miss cycles
system.l2.demand_accesses::.cpu.inst                2                       # number of demand (read+write) accesses
system.l2.demand_accesses::.cpu.data                3                       # number of demand (read+write) accesses
system.l2.demand_accesses::.switch_cpus.inst          455                       # number of demand (read+write) accesses
system.l2.demand_accesses::.switch_cpus.data       184406                       # number of demand (read+write) accesses
system.l2.demand_accesses::total               184866                       # number of demand (read+write) accesses
system.l2.overall_accesses::.cpu.inst               2                       # number of overall (read+write) accesses
system.l2.overall_accesses::.cpu.data               3                       # number of overall (read+write) accesses
system.l2.overall_accesses::.switch_cpus.inst          455                       # number of overall (read+write) accesses
system.l2.overall_accesses::.switch_cpus.data       184406                       # number of overall (read+write) accesses
system.l2.overall_accesses::total              184866                       # number of overall (read+write) accesses
system.l2.demand_miss_rate::.cpu.inst               1                       # miss rate for demand accesses
system.l2.demand_miss_rate::.cpu.data               1                       # miss rate for demand accesses
system.l2.demand_miss_rate::.switch_cpus.inst     0.879121                       # miss rate for demand accesses
system.l2.demand_miss_rate::.switch_cpus.data     0.829344                       # miss rate for demand accesses
system.l2.demand_miss_rate::total            0.829471                       # miss rate for demand accesses
system.l2.overall_miss_rate::.cpu.inst              1                       # miss rate for overall accesses
system.l2.overall_miss_rate::.cpu.data              1                       # miss rate for overall accesses
system.l2.overall_miss_rate::.switch_cpus.inst     0.879121                       # miss rate for overall accesses
system.l2.overall_miss_rate::.switch_cpus.data     0.829344                       # miss rate for overall accesses
system.l2.overall_miss_rate::total           0.829471                       # miss rate for overall accesses
system.l2.demand_avg_miss_latency::.switch_cpus.inst 86396.250000                       # average overall miss latency
system.l2.demand_avg_miss_latency::.switch_cpus.data 81492.012999                       # average overall miss latency
system.l2.demand_avg_miss_latency::total 81502.148806                       # average overall miss latency
system.l2.overall_avg_miss_latency::.switch_cpus.inst 86396.250000                       # average overall miss latency
system.l2.overall_avg_miss_latency::.switch_cpus.data 81492.012999                       # average overall miss latency
system.l2.overall_avg_miss_latency::total 81502.148806                       # average overall miss latency
system.l2.blocked_cycles::no_mshrs                  0                       # number of cycles access was blocked
system.l2.blocked_cycles::no_targets                0                       # number of cycles access was blocked
system.l2.blocked::no_mshrs                         0                       # number of cycles access was blocked
system.l2.blocked::no_targets                       0                       # number of cycles access was blocked
system.l2.avg_blocked_cycles::no_mshrs            nan                       # average number of cycles each access was blocked
system.l2.avg_blocked_cycles::no_targets          nan                       # average number of cycles each access was blocked
system.l2.writebacks::.writebacks               15153                       # number of writebacks
system.l2.writebacks::total                     15153                       # number of writebacks
system.l2.demand_mshr_misses::.switch_cpus.inst          400                       # number of demand (read+write) MSHR misses
system.l2.demand_mshr_misses::.switch_cpus.data       152936                       # number of demand (read+write) MSHR misses
system.l2.demand_mshr_misses::total            153336                       # number of demand (read+write) MSHR misses
system.l2.overall_mshr_misses::.switch_cpus.inst          400                       # number of overall MSHR misses
system.l2.overall_mshr_misses::.switch_cpus.data       152936                       # number of overall MSHR misses
system.l2.overall_mshr_misses::total           153336                       # number of overall MSHR misses
system.l2.demand_mshr_miss_latency::.switch_cpus.inst     30558500                       # number of demand (read+write) MSHR miss cycles
system.l2.demand_mshr_miss_latency::.switch_cpus.data  10933712500                       # number of demand (read+write) MSHR miss cycles
system.l2.demand_mshr_miss_latency::total  10964271000                       # number of demand (read+write) MSHR miss cycles
system.l2.overall_mshr_miss_latency::.switch_cpus.inst     30558500                       # number of overall MSHR miss cycles
system.l2.overall_mshr_miss_latency::.switch_cpus.data  10933712500                       # number of overall MSHR miss cycles
system.l2.overall_mshr_miss_latency::total  10964271000                       # number of overall MSHR miss cycles
system.l2.demand_mshr_miss_rate::.switch_cpus.inst     0.879121                       # mshr miss rate for demand accesses
system.l2.demand_mshr_miss_rate::.switch_cpus.data     0.829344                       # mshr miss rate for demand accesses
system.l2.demand_mshr_miss_rate::total       0.829444                       # mshr miss rate for demand accesses
system.l2.overall_mshr_miss_rate::.switch_cpus.inst     0.879121                       # mshr miss rate for overall accesses
system.l2.overall_mshr_miss_rate::.switch_cpus.data     0.829344                       # mshr miss rate for overall accesses
system.l2.overall_mshr_miss_rate::total      0.829444                       # mshr miss rate for overall accesses
system.l2.demand_avg_mshr_miss_latency::.switch_cpus.inst 76396.250000                       # average overall mshr miss latency
system.l2.demand_avg_mshr_miss_latency::.switch_cpus.data 71492.078386                       # average overall mshr miss latency
system.l2.demand_avg_mshr_miss_latency::total 71504.871654                       # average overall mshr miss latency
system.l2.overall_avg_mshr_miss_latency::.switch_cpus.inst 76396.250000                       # average overall mshr miss latency
system.l2.overall_avg_mshr_miss_latency::.switch_cpus.data 71492.078386                       # average overall mshr miss latency
system.l2.overall_avg_mshr_miss_latency::total 71504.871654                       # average overall mshr miss latency
system.l2.replacements                         145353                       # number of replacements
system.l2.WritebackDirty_hits::.writebacks        31940                       # number of WritebackDirty hits
system.l2.WritebackDirty_hits::total            31940                       # number of WritebackDirty hits
system.l2.WritebackDirty_accesses::.writebacks        31940                       # number of WritebackDirty accesses(hits+misses)
system.l2.WritebackDirty_accesses::total        31940                       # number of WritebackDirty accesses(hits+misses)
system.l2.WritebackClean_hits::.writebacks          174                       # number of WritebackClean hits
system.l2.WritebackClean_hits::total              174                       # number of WritebackClean hits
system.l2.WritebackClean_accesses::.writebacks          174                       # number of WritebackClean accesses(hits+misses)
system.l2.WritebackClean_accesses::total          174                       # number of WritebackClean accesses(hits+misses)
system.l2.CleanEvict_mshr_misses::.writebacks           34                       # number of CleanEvict MSHR misses
system.l2.CleanEvict_mshr_misses::total            34                       # number of CleanEvict MSHR misses
system.l2.CleanEvict_mshr_miss_rate::.writebacks          inf                       # mshr miss rate for CleanEvict accesses
system.l2.CleanEvict_mshr_miss_rate::total          inf                       # mshr miss rate for CleanEvict accesses
system.l2.ReadExReq_hits::.switch_cpus.data         1184                       # number of ReadExReq hits
system.l2.ReadExReq_hits::total                  1184                       # number of ReadExReq hits
system.l2.ReadExReq_misses::.cpu.data               1                       # number of ReadExReq misses
system.l2.ReadExReq_misses::.switch_cpus.data        11155                       # number of ReadExReq misses
system.l2.ReadExReq_misses::total               11156                       # number of ReadExReq misses
system.l2.ReadExReq_miss_latency::.switch_cpus.data    904100000                       # number of ReadExReq miss cycles
system.l2.ReadExReq_miss_latency::total     904100000                       # number of ReadExReq miss cycles
system.l2.ReadExReq_accesses::.cpu.data             1                       # number of ReadExReq accesses(hits+misses)
system.l2.ReadExReq_accesses::.switch_cpus.data        12339                       # number of ReadExReq accesses(hits+misses)
system.l2.ReadExReq_accesses::total             12340                       # number of ReadExReq accesses(hits+misses)
system.l2.ReadExReq_miss_rate::.cpu.data            1                       # miss rate for ReadExReq accesses
system.l2.ReadExReq_miss_rate::.switch_cpus.data     0.904044                       # miss rate for ReadExReq accesses
system.l2.ReadExReq_miss_rate::total         0.904052                       # miss rate for ReadExReq accesses
system.l2.ReadExReq_avg_miss_latency::.switch_cpus.data 81048.857015                       # average ReadExReq miss latency
system.l2.ReadExReq_avg_miss_latency::total 81041.591968                       # average ReadExReq miss latency
system.l2.ReadExReq_mshr_misses::.switch_cpus.data        11155                       # number of ReadExReq MSHR misses
system.l2.ReadExReq_mshr_misses::total          11155                       # number of ReadExReq MSHR misses
system.l2.ReadExReq_mshr_miss_latency::.switch_cpus.data    792550000                       # number of ReadExReq MSHR miss cycles
system.l2.ReadExReq_mshr_miss_latency::total    792550000                       # number of ReadExReq MSHR miss cycles
system.l2.ReadExReq_mshr_miss_rate::.switch_cpus.data     0.904044                       # mshr miss rate for ReadExReq accesses
system.l2.ReadExReq_mshr_miss_rate::total     0.903971                       # mshr miss rate for ReadExReq accesses
system.l2.ReadExReq_avg_mshr_miss_latency::.switch_cpus.data 71048.857015                       # average ReadExReq mshr miss latency
system.l2.ReadExReq_avg_mshr_miss_latency::total 71048.857015                       # average ReadExReq mshr miss latency
system.l2.ReadCleanReq_hits::.switch_cpus.inst           55                       # number of ReadCleanReq hits
system.l2.ReadCleanReq_hits::total                 55                       # number of ReadCleanReq hits
system.l2.ReadCleanReq_misses::.cpu.inst            2                       # number of ReadCleanReq misses
system.l2.ReadCleanReq_misses::.switch_cpus.inst          400                       # number of ReadCleanReq misses
system.l2.ReadCleanReq_misses::total              402                       # number of ReadCleanReq misses
system.l2.ReadCleanReq_miss_latency::.switch_cpus.inst     34558500                       # number of ReadCleanReq miss cycles
system.l2.ReadCleanReq_miss_latency::total     34558500                       # number of ReadCleanReq miss cycles
system.l2.ReadCleanReq_accesses::.cpu.inst            2                       # number of ReadCleanReq accesses(hits+misses)
system.l2.ReadCleanReq_accesses::.switch_cpus.inst          455                       # number of ReadCleanReq accesses(hits+misses)
system.l2.ReadCleanReq_accesses::total            457                       # number of ReadCleanReq accesses(hits+misses)
system.l2.ReadCleanReq_miss_rate::.cpu.inst            1                       # miss rate for ReadCleanReq accesses
system.l2.ReadCleanReq_miss_rate::.switch_cpus.inst     0.879121                       # miss rate for ReadCleanReq accesses
system.l2.ReadCleanReq_miss_rate::total      0.879650                       # miss rate for ReadCleanReq accesses
system.l2.ReadCleanReq_avg_miss_latency::.switch_cpus.inst 86396.250000                       # average ReadCleanReq miss latency
[...]
system.cpu.itb.walker.pwrStateResidencyTicks::UNDEFINED 270801639319000                       # Cumulative time (in ticks) in various power states
system.cpu.dtb_walker_cache.pwrStateResidencyTicks::UNDEFINED 270801639319000                       # Cumulative time (in ticks) in various power states
system.cpu.dtb_walker_cache.blocked_cycles::no_mshrs            0                       # number of cycles access was blocked
system.cpu.dtb_walker_cache.blocked_cycles::no_targets            0                       # number of cycles access was blocked
system.cpu.dtb_walker_cache.blocked::no_mshrs            0                       # number of cycles access was blocked
system.cpu.dtb_walker_cache.blocked::no_targets            0                       # number of cycles access was blocked
system.cpu.dtb_walker_cache.avg_blocked_cycles::no_mshrs          nan                       # average number of cycles each access was blocked
system.cpu.dtb_walker_cache.avg_blocked_cycles::no_targets          nan                       # average number of cycles each access was blocked
system.cpu.dtb_walker_cache.replacements            0                       # number of replacements
system.cpu.dtb_walker_cache.tags.pwrStateResidencyTicks::UNDEFINED 270801639319000                       # Cumulative time (in ticks) in various power states
system.cpu.dtb_walker_cache.tags.tagsinuse            0                       # Cycle average of tags in use
system.cpu.dtb_walker_cache.tags.total_refs            0                       # Total number of references to valid blocks.
system.cpu.dtb_walker_cache.tags.sampled_refs            0                       # Sample count of references to valid blocks.
system.cpu.dtb_walker_cache.tags.avg_refs          nan                       # Average number of references to valid blocks.
system.cpu.dtb_walker_cache.tags.warmup_cycle            0                       # Cycle when the warmup percentage was hit.
system.cpu.dtb_walker_cache.tags.tag_accesses            0                       # Number of tag accesses
system.cpu.dtb_walker_cache.tags.data_accesses            0                       # Number of data accesses
system.cpu.dcache.pwrStateResidencyTicks::UNDEFINED 270801639319000                       # Cumulative time (in ticks) in various power states
system.cpu.dcache.demand_hits::.cpu.data            3                       # number of demand (read+write) hits
system.cpu.dcache.demand_hits::.switch_cpus.data     10306211                       # number of demand (read+write) hits
system.cpu.dcache.demand_hits::total         10306214                       # number of demand (read+write) hits
system.cpu.dcache.overall_hits::.cpu.data            3                       # number of overall hits
system.cpu.dcache.overall_hits::.switch_cpus.data     10322298                       # number of overall hits
system.cpu.dcache.overall_hits::total        10322301                       # number of overall hits
system.cpu.dcache.demand_misses::.cpu.data            3                       # number of demand (read+write) misses
system.cpu.dcache.demand_misses::.switch_cpus.data      3002543                       # number of demand (read+write) misses
system.cpu.dcache.demand_misses::total        3002546                       # number of demand (read+write) misses
system.cpu.dcache.overall_misses::.cpu.data            3                       # number of overall misses
system.cpu.dcache.overall_misses::.switch_cpus.data      3002798                       # number of overall misses
system.cpu.dcache.overall_misses::total       3002801                       # number of overall misses
system.cpu.dcache.demand_miss_latency::.switch_cpus.data 188196956410                       # number of demand (read+write) miss cycles
system.cpu.dcache.demand_miss_latency::total 188196956410                       # number of demand (read+write) miss cycles
system.cpu.dcache.overall_miss_latency::.switch_cpus.data 188196956410                       # number of overall miss cycles
system.cpu.dcache.overall_miss_latency::total 188196956410                       # number of overall miss cycles
system.cpu.dcache.demand_accesses::.cpu.data            6                       # number of demand (read+write) accesses
system.cpu.dcache.demand_accesses::.switch_cpus.data     13308754                       # number of demand (read+write) accesses
system.cpu.dcache.demand_accesses::total     13308760                       # number of demand (read+write) accesses
system.cpu.dcache.overall_accesses::.cpu.data            6                       # number of overall (read+write) accesses
system.cpu.dcache.overall_accesses::.switch_cpus.data     13325096                       # number of overall (read+write) accesses
system.cpu.dcache.overall_accesses::total     13325102                       # number of overall (read+write) accesses
system.cpu.dcache.demand_miss_rate::.cpu.data     0.500000                       # miss rate for demand accesses
system.cpu.dcache.demand_miss_rate::.switch_cpus.data     0.225607                       # miss rate for demand accesses
system.cpu.dcache.demand_miss_rate::total     0.225607                       # miss rate for demand accesses
system.cpu.dcache.overall_miss_rate::.cpu.data     0.500000                       # miss rate for overall accesses
system.cpu.dcache.overall_miss_rate::.switch_cpus.data     0.225349                       # miss rate for overall accesses
system.cpu.dcache.overall_miss_rate::total     0.225349                       # miss rate for overall accesses
system.cpu.dcache.demand_avg_miss_latency::.switch_cpus.data 62679.187745                       # average overall miss latency
system.cpu.dcache.demand_avg_miss_latency::total 62679.125119                       # average overall miss latency
system.cpu.dcache.overall_avg_miss_latency::.switch_cpus.data 62673.864979                       # average overall miss latency
system.cpu.dcache.overall_avg_miss_latency::total 62673.802363                       # average overall miss latency
system.cpu.dcache.blocked_cycles::no_mshrs      3355805                       # number of cycles access was blocked
system.cpu.dcache.blocked_cycles::no_targets            0                       # number of cycles access was blocked
system.cpu.dcache.blocked::no_mshrs             99181                       # number of cycles access was blocked
system.cpu.dcache.blocked::no_targets               0                       # number of cycles access was blocked
system.cpu.dcache.avg_blocked_cycles::no_mshrs    33.835160                       # average number of cycles each access was blocked
system.cpu.dcache.avg_blocked_cycles::no_targets          nan                       # average number of cycles each access was blocked
system.cpu.dcache.writebacks::.writebacks       131362                       # number of writebacks
system.cpu.dcache.writebacks::total            131362                       # number of writebacks
system.cpu.dcache.demand_mshr_hits::.switch_cpus.data      2247835                       # number of demand (read+write) MSHR hits
system.cpu.dcache.demand_mshr_hits::total      2247835                       # number of demand (read+write) MSHR hits
system.cpu.dcache.overall_mshr_hits::.switch_cpus.data      2247835                       # number of overall MSHR hits
system.cpu.dcache.overall_mshr_hits::total      2247835                       # number of overall MSHR hits
system.cpu.dcache.demand_mshr_misses::.switch_cpus.data       754708                       # number of demand (read+write) MSHR misses
system.cpu.dcache.demand_mshr_misses::total       754708                       # number of demand (read+write) MSHR misses
system.cpu.dcache.overall_mshr_misses::.switch_cpus.data       754864                       # number of overall MSHR misses
system.cpu.dcache.overall_mshr_misses::total       754864                       # number of overall MSHR misses
system.cpu.dcache.demand_mshr_miss_latency::.switch_cpus.data  52727662410                       # number of demand (read+write) MSHR miss cycles
system.cpu.dcache.demand_mshr_miss_latency::total  52727662410                       # number of demand (read+write) MSHR miss cycles
system.cpu.dcache.overall_mshr_miss_latency::.switch_cpus.data  52734527910                       # number of overall MSHR miss cycles
system.cpu.dcache.overall_mshr_miss_latency::total  52734527910                       # number of overall MSHR miss cycles
system.cpu.dcache.demand_mshr_miss_rate::.switch_cpus.data     0.056708                       # mshr miss rate for demand accesses
system.cpu.dcache.demand_mshr_miss_rate::total     0.056708                       # mshr miss rate for demand accesses
system.cpu.dcache.overall_mshr_miss_rate::.switch_cpus.data     0.056650                       # mshr miss rate for overall accesses
system.cpu.dcache.overall_mshr_miss_rate::total     0.056650                       # mshr miss rate for overall accesses
system.cpu.dcache.demand_avg_mshr_miss_latency::.switch_cpus.data 69864.984087                       # average overall mshr miss latency
system.cpu.dcache.demand_avg_mshr_miss_latency::total 69864.984087                       # average overall mshr miss latency
system.cpu.dcache.overall_avg_mshr_miss_latency::.switch_cpus.data 69859.640823                       # average overall mshr miss latency
system.cpu.dcache.overall_avg_mshr_miss_latency::total 69859.640823                       # average overall mshr miss latency
system.cpu.dcache.replacements                 753842                       # number of replacements
system.cpu.dcache.ReadReq_hits::.cpu.data            3                       # number of ReadReq hits
system.cpu.dcache.ReadReq_hits::.switch_cpus.data      9103175                       # number of ReadReq hits
system.cpu.dcache.ReadReq_hits::total         9103178                       # number of ReadReq hits
system.cpu.dcache.ReadReq_misses::.cpu.data            2                       # number of ReadReq misses
system.cpu.dcache.ReadReq_misses::.switch_cpus.data      2955986                       # number of ReadReq misses
system.cpu.dcache.ReadReq_misses::total       2955988                       # number of ReadReq misses
system.cpu.dcache.ReadReq_miss_latency::.switch_cpus.data 184722697000                       # number of ReadReq miss cycles
system.cpu.dcache.ReadReq_miss_latency::total 184722697000                       # number of ReadReq miss cycles
system.cpu.dcache.ReadReq_accesses::.cpu.data            5                       # number of ReadReq accesses(hits+misses)
system.cpu.dcache.ReadReq_accesses::.switch_cpus.data     12059161                       # number of ReadReq accesses(hits+misses)
system.cpu.dcache.ReadReq_accesses::total     12059166                       # number of ReadReq accesses(hits+misses)
system.cpu.dcache.ReadReq_miss_rate::.cpu.data     0.400000                       # miss rate for ReadReq accesses
system.cpu.dcache.ReadReq_miss_rate::.switch_cpus.data     0.245124                       # miss rate for ReadReq accesses
system.cpu.dcache.ReadReq_miss_rate::total     0.245124                       # miss rate for ReadReq accesses
system.cpu.dcache.ReadReq_avg_miss_latency::.switch_cpus.data 62491.059498                       # average ReadReq miss latency
system.cpu.dcache.ReadReq_avg_miss_latency::total 62491.017217                       # average ReadReq miss latency
system.cpu.dcache.ReadReq_mshr_hits::.switch_cpus.data      2247637                       # number of ReadReq MSHR hits
system.cpu.dcache.ReadReq_mshr_hits::total      2247637                       # number of ReadReq MSHR hits
system.cpu.dcache.ReadReq_mshr_misses::.switch_cpus.data       708349                       # number of ReadReq MSHR misses
system.cpu.dcache.ReadReq_mshr_misses::total       708349                       # number of ReadReq MSHR misses
system.cpu.dcache.ReadReq_mshr_miss_latency::.switch_cpus.data  49307445500                       # number of ReadReq MSHR miss cycles
system.cpu.dcache.ReadReq_mshr_miss_latency::total  49307445500                       # number of ReadReq MSHR miss cycles
system.cpu.dcache.ReadReq_mshr_miss_rate::.switch_cpus.data     0.058739                       # mshr miss rate for ReadReq accesses
system.cpu.dcache.ReadReq_mshr_miss_rate::total     0.058739                       # mshr miss rate for ReadReq accesses
system.cpu.dcache.ReadReq_avg_mshr_miss_latency::.switch_cpus.data 69608.971707                       # average ReadReq mshr miss latency
system.cpu.dcache.ReadReq_avg_mshr_miss_latency::total 69608.971707                       # average ReadReq mshr miss latency
system.cpu.dcache.WriteReq_hits::.switch_cpus.data      1203036                       # number of WriteReq hits
system.cpu.dcache.WriteReq_hits::total        1203036                       # number of WriteReq hits
system.cpu.dcache.WriteReq_misses::.cpu.data            1                       # number of WriteReq misses
system.cpu.dcache.WriteReq_misses::.switch_cpus.data        46557                       # number of WriteReq misses
system.cpu.dcache.WriteReq_misses::total        46558                       # number of WriteReq misses
system.cpu.dcache.WriteReq_miss_latency::.switch_cpus.data   3474259410                       # number of WriteReq miss cycles
system.cpu.dcache.WriteReq_miss_latency::total   3474259410                       # number of WriteReq miss cycles
system.cpu.dcache.WriteReq_accesses::.cpu.data            1                       # number of WriteReq accesses(hits+misses)
system.cpu.dcache.WriteReq_accesses::.switch_cpus.data      1249593                       # number of WriteReq accesses(hits+misses)
system.cpu.dcache.WriteReq_accesses::total      1249594                       # number of WriteReq accesses(hits+misses)
system.cpu.dcache.WriteReq_miss_rate::.cpu.data            1                       # miss rate for WriteReq accesses
system.cpu.dcache.WriteReq_miss_rate::.switch_cpus.data     0.037258                       # miss rate for WriteReq accesses
system.cpu.dcache.WriteReq_miss_rate::total     0.037259                       # miss rate for WriteReq accesses
system.cpu.dcache.WriteReq_avg_miss_latency::.switch_cpus.data 74623.781816                       # average WriteReq miss latency
system.cpu.dcache.WriteReq_avg_miss_latency::total 74622.179003                       # average WriteReq miss latency
system.cpu.dcache.WriteReq_mshr_hits::.switch_cpus.data          198                       # number of WriteReq MSHR hits
system.cpu.dcache.WriteReq_mshr_hits::total          198                       # number of WriteReq MSHR hits
system.cpu.dcache.WriteReq_mshr_misses::.switch_cpus.data        46359                       # number of WriteReq MSHR misses
system.cpu.dcache.WriteReq_mshr_misses::total        46359                       # number of WriteReq MSHR misses
system.cpu.dcache.WriteReq_mshr_miss_latency::.switch_cpus.data   3420216910                       # number of WriteReq MSHR miss cycles
system.cpu.dcache.WriteReq_mshr_miss_latency::total   3420216910                       # number of WriteReq MSHR miss cycles
system.cpu.dcache.WriteReq_mshr_miss_rate::.switch_cpus.data     0.037099                       # mshr miss rate for WriteReq accesses
system.cpu.dcache.WriteReq_mshr_miss_rate::total     0.037099                       # mshr miss rate for WriteReq accesses
system.cpu.dcache.WriteReq_avg_mshr_miss_latency::.switch_cpus.data 73776.762010                       # average WriteReq mshr miss latency
system.cpu.dcache.WriteReq_avg_mshr_miss_latency::total 73776.762010                       # average WriteReq mshr miss latency
system.cpu.dcache.SoftPFReq_hits::.switch_cpus.data        16087                       # number of SoftPFReq hits
system.cpu.dcache.SoftPFReq_hits::total         16087                       # number of SoftPFReq hits
system.cpu.dcache.SoftPFReq_misses::.switch_cpus.data          255                       # number of SoftPFReq misses
system.cpu.dcache.SoftPFReq_misses::total          255                       # number of SoftPFReq misses
system.cpu.dcache.SoftPFReq_accesses::.switch_cpus.data        16342                       # number of SoftPFReq accesses(hits+misses)
system.cpu.dcache.SoftPFReq_accesses::total        16342                       # number of SoftPFReq accesses(hits+misses)
system.cpu.dcache.SoftPFReq_miss_rate::.switch_cpus.data     0.015604                       # miss rate for SoftPFReq accesses
system.cpu.dcache.SoftPFReq_miss_rate::total     0.015604                       # miss rate for SoftPFReq accesses
system.cpu.dcache.SoftPFReq_mshr_misses::.switch_cpus.data          156                       # number of SoftPFReq MSHR misses
system.cpu.dcache.SoftPFReq_mshr_misses::total          156                       # number of SoftPFReq MSHR misses
system.cpu.dcache.SoftPFReq_mshr_miss_latency::.switch_cpus.data      6865500                       # number of SoftPFReq MSHR miss cycles
system.cpu.dcache.SoftPFReq_mshr_miss_latency::total      6865500                       # number of SoftPFReq MSHR miss cycles
system.cpu.dcache.SoftPFReq_mshr_miss_rate::.switch_cpus.data     0.009546                       # mshr miss rate for SoftPFReq accesses
system.cpu.dcache.SoftPFReq_mshr_miss_rate::total     0.009546                       # mshr miss rate for SoftPFReq accesses
system.cpu.dcache.SoftPFReq_avg_mshr_miss_latency::.switch_cpus.data 44009.615385                       # average SoftPFReq mshr miss latency
system.cpu.dcache.SoftPFReq_avg_mshr_miss_latency::total 44009.615385                       # average SoftPFReq mshr miss latency
system.cpu.dcache.tags.pwrStateResidencyTicks::UNDEFINED 270801639319000                       # Cumulative time (in ticks) in various power states
system.cpu.dcache.tags.tagsinuse             0.129804                       # Cycle average of tags in use
system.cpu.dcache.tags.total_refs            11077167                       # Total number of references to valid blocks.
system.cpu.dcache.tags.sampled_refs            754866                       # Sample count of references to valid blocks.
system.cpu.dcache.tags.avg_refs             14.674349                       # Average number of references to valid blocks.
system.cpu.dcache.tags.warmup_cycle      270767280054500                       # Cycle when the warmup percentage was hit.
system.cpu.dcache.tags.occ_blocks::.cpu.data     0.000002                       # Average occupied blocks per requestor
system.cpu.dcache.tags.occ_blocks::.switch_cpus.data     0.129801                       # Average occupied blocks per requestor
system.cpu.dcache.tags.occ_percent::.cpu.data     0.000000                       # Average percentage of cache occupancy
system.cpu.dcache.tags.occ_percent::.switch_cpus.data     0.000127                       # Average percentage of cache occupancy
system.cpu.dcache.tags.occ_percent::total     0.000127                       # Average percentage of cache occupancy
system.cpu.dcache.tags.occ_task_id_blocks::1024         1024                       # Occupied blocks per task id
system.cpu.dcache.tags.age_task_id_blocks_1024::0          207                       # Occupied blocks per task id
system.cpu.dcache.tags.age_task_id_blocks_1024::1          814                       # Occupied blocks per task id
system.cpu.dcache.tags.age_task_id_blocks_1024::3            3                       # Occupied blocks per task id
system.cpu.dcache.tags.occ_task_id_percent::1024            1                       # Percentage of cache occupancy per task id
system.cpu.dcache.tags.tag_accesses          27405070                       # Number of tag accesses
system.cpu.dcache.tags.data_accesses         27405070                       # Number of data accesses

---------- End Simulation Statistics   ----------
