
---------- Begin Simulation Statistics ----------
final_tick                               70893077741500                       # Number of ticks from beginning of simulation (restored from checkpoints and never reset)
host_inst_rate                                  73639                       # Simulator instruction rate (inst/s)
host_mem_usage                                 792180                       # Number of bytes of host memory used
host_op_rate                                   118031                       # Simulator op (including micro ops) rate (op/s)
host_seconds                                   135.80                       # Real time elapsed on the host
host_tick_rate                               21122939                       # Simulator tick rate (ticks/s)
sim_freq                                 1000000000000                       # Frequency of simulated ticks
sim_insts                                    10000010                       # Number of instructions simulated
sim_ops                                      16028373                       # Number of ops (including micro ops) simulated
sim_seconds                                  0.002868                       # Number of seconds simulated
sim_ticks                                  2868465250                       # Number of ticks simulated
system.cpu.committedInsts                          10                       # Number of instructions committed
system.cpu.committedOps                            14                       # Number of ops (including micro ops) committed
system.cpu.dtb.rdAccesses                           5                       # TLB accesses on read requests
system.cpu.dtb.rdMisses                             0                       # TLB misses on read requests
system.cpu.dtb.wrAccesses                           2                       # TLB accesses on write requests
system.cpu.dtb.wrMisses                             0                       # TLB misses on write requests
system.cpu.idle_fraction                            0                       # Percentage of idle cycles
system.cpu.itb.rdAccesses                           0                       # TLB accesses on read requests
system.cpu.itb.rdMisses                             0                       # TLB misses on read requests
system.cpu.itb.wrAccesses                          15                       # TLB accesses on write requests
system.cpu.itb.wrMisses                             0                       # TLB misses on write requests
system.cpu.not_idle_fraction                        1                       # Percentage of non-idle cycles
system.cpu.numCycles                               19                       # number of cpu cycles simulated
system.cpu.numWorkItemsCompleted                    0                       # number of work items this cpu completed
system.cpu.numWorkItemsStarted                      0                       # number of work items this cpu started
system.cpu.num_busy_cycles                         19                       # Number of busy cycles
system.cpu.num_cc_register_reads                   20                       # number of times the CC registers were read
system.cpu.num_cc_register_writes                   6                       # number of times the CC registers were written
system.cpu.num_conditional_control_insts            0                       # number of instructions that are conditional controls
system.cpu.num_fp_alu_accesses                      0                       # Number of float alu accesses
system.cpu.num_fp_insts                             0                       # number of float instructions
system.cpu.num_fp_register_reads                    0                       # number of times the floating registers were read
system.cpu.num_fp_register_writes                   0                       # number of times the floating registers were written
system.cpu.num_func_calls                           0                       # number of times a function call or return occured
system.cpu.num_idle_cycles                          0                       # Number of idle cycles
system.cpu.num_int_alu_accesses                    14                       # Number of integer alu accesses
system.cpu.num_int_insts                           14                       # number of integer instructions
system.cpu.num_int_register_reads                  41                       # number of times the integer registers were read
system.cpu.num_int_register_writes                 12                       # number of times the integer registers were written
system.cpu.num_load_insts                           5                       # Number of load instructions
system.cpu.num_mem_refs                             7                       # number of memory refs
system.cpu.num_store_insts                          2                       # Number of store instructions
system.cpu.num_vec_alu_accesses                     0                       # Number of vector alu accesses
system.cpu.num_vec_insts                            0                       # number of vector instructions
system.cpu.num_vec_register_reads                   0                       # number of times the vector registers were read
system.cpu.num_vec_register_writes                  0                       # number of times the vector registers were written
system.cpu.op_class::No_OpClass                     0      0.00%      0.00% # Class of executed instruction
system.cpu.op_class::IntAlu                         7     50.00%     50.00% # Class of executed instruction
system.cpu.op_class::IntMult                        0      0.00%     50.00% # Class of executed instruction
system.cpu.op_class::IntDiv                         0      0.00%     50.00% # Class of executed instruction
system.cpu.op_class::FloatAdd                       0      0.00%     50.00% # Class of executed instruction
system.cpu.op_class::FloatCmp                       0      0.00%     50.00% # Class of executed instruction
system.cpu.op_class::FloatCvt                       0      0.00%     50.00% # Class of executed instruction
system.cpu.op_class::FloatMult                      0      0.00%     50.00% # Class of executed instruction
system.cpu.op_class::FloatMultAcc                   0      0.00%     50.00% # Class of executed instruction
system.cpu.op_class::FloatDiv                       0      0.00%     50.00% # Class of executed instruction
system.cpu.op_class::FloatMisc                      0      0.00%     50.00% # Class of executed instruction
system.cpu.op_class::FloatSqrt                      0      0.00%     50.00% # Class of executed instruction
system.cpu.op_class::SimdAdd                        0      0.00%     50.00% # Class of executed instruction
system.cpu.op_class::SimdAddAcc                     0      0.00%     50.00% # Class of executed instruction
system.cpu.op_class::SimdAlu                        0      0.00%     50.00% # Class of executed instruction
system.cpu.op_class::SimdCmp                        0      0.00%     50.00% # Class of executed instruction
system.cpu.op_class::SimdCvt                        0      0.00%     50.00% # Class of executed instruction
system.cpu.op_class::SimdMisc                       0      0.00%     50.00% # Class of executed instruction
system.cpu.op_class::SimdMult                       0      0.00%     50.00% # Class of executed instruction
system.cpu.op_class::SimdMultAcc                    0      0.00%     50.00% # Class of executed instruction
system.cpu.op_class::SimdShift                      0      0.00%     50.00% # Class of executed instruction
system.cpu.op_class::SimdShiftAcc                   0      0.00%     50.00% # Class of executed instruction
system.cpu.op_class::SimdDiv                        0      0.00%     50.00% # Class of executed instruction
system.cpu.op_class::SimdSqrt                       0      0.00%     50.00% # Class of executed instruction
system.cpu.op_class::SimdFloatAdd                   0      0.00%     50.00% # Class of executed instruction
system.cpu.op_class::SimdFloatAlu                   0      0.00%     50.00% # Class of executed instruction
system.cpu.op_class::SimdFloatCmp                   0      0.00%     50.00% # Class of executed instruction
system.cpu.op_class::SimdFloatCvt                   0      0.00%     50.00% # Class of executed instruction
system.cpu.op_class::SimdFloatDiv                   0      0.00%     50.00% # Class of executed instruction
system.cpu.op_class::SimdFloatMisc                  0      0.00%     50.00% # Class of executed instruction
system.cpu.op_class::SimdFloatMult                  0      0.00%     50.00% # Class of executed instruction
system.cpu.op_class::SimdFloatMultAcc               0      0.00%     50.00% # Class of executed instruction
system.cpu.op_class::SimdFloatSqrt                  0      0.00%     50.00% # Class of executed instruction
system.cpu.op_class::SimdReduceAdd                  0      0.00%     50.00% # Class of executed instruction
system.cpu.op_class::SimdReduceAlu                  0      0.00%     50.00% # Class of executed instruction
system.cpu.op_class::SimdReduceCmp                  0      0.00%     50.00% # Class of executed instruction
system.cpu.op_class::SimdFloatReduceAdd             0      0.00%     50.00% # Class of executed instruction
system.cpu.op_class::SimdFloatReduceCmp             0      0.00%     50.00% # Class of executed instruction
system.cpu.op_class::SimdAes                        0      0.00%     50.00% # Class of executed instruction
system.cpu.op_class::SimdAesMix                     0      0.00%     50.00% # Class of executed instruction
system.cpu.op_class::SimdSha1Hash                   0      0.00%     50.00% # Class of executed instruction
system.cpu.op_class::SimdSha1Hash2                  0      0.00%     50.00% # Class of executed instruction
system.cpu.op_class::SimdSha256Hash                 0      0.00%     50.00% # Class of executed instruction
system.cpu.op_class::SimdSha256Hash2                0      0.00%     50.00% # Class of executed instruction
system.cpu.op_class::SimdShaSigma2                  0      0.00%     50.00% # Class of executed instruction
system.cpu.op_class::SimdShaSigma3                  0      0.00%     50.00% # Class of executed instruction
system.cpu.op_class::SimdPredAlu                    0      0.00%     50.00% # Class of executed instruction
system.cpu.op_class::MemRead                        5     35.71%     85.71% # Class of executed instruction
system.cpu.op_class::MemWrite                       2     14.29%    100.00% # Class of executed instruction
system.cpu.op_class::FloatMemRead                   0      0.00%    100.00% # Class of executed instruction
system.cpu.op_class::FloatMemWrite                  0      0.00%    100.00% # Class of executed instruction
system.cpu.op_class::IprAccess                      0      0.00%    100.00% # Class of executed instruction
system.cpu.op_class::InstPrefetch                   0      0.00%    100.00% # Class of executed instruction
system.cpu.op_class::total                         14                       # Class of executed instruction
system.cpu.workload.numSyscalls                     0                       # Number of system calls
system.membus.snoop_filter.hit_multi_requests            0                       # Number of requests hitting in the snoop filter with multiple (>1) holders of the requested data.
system.membus.snoop_filter.hit_multi_snoops            0                       # Number of snoops hitting in the snoop filter with multiple (>1) holders of the requested data.
system.membus.snoop_filter.hit_single_requests         5606                       # Number of requests hitting in the snoop filter with a single holder of the requested data.
system.membus.snoop_filter.hit_single_snoops            0                       # Number of snoops hitting in the snoop filter with a single holder of the requested data.
system.membus.snoop_filter.tot_requests         13415                       # Total number of requests made to the snoop filter.
system.membus.snoop_filter.tot_snoops               0                       # Total number of snoops made to the snoop filter.
system.switch_cpus.branchPred.BTBCorrect            0                       # Number of correct BTB predictions (this stat may not work properly.
system.switch_cpus.branchPred.BTBHitPct      0.000000                       # BTB Hit Percentage
system.switch_cpus.branchPred.BTBHits               0                       # Number of BTB hits
system.switch_cpus.branchPred.BTBLookups       603185                       # Number of BTB lookups
system.switch_cpus.branchPred.RASInCorrect            1                       # Number of incorrect RAS predictions.
system.switch_cpus.branchPred.condIncorrect        19465                       # Number of conditional branches incorrect
system.switch_cpus.branchPred.condPredicted       859233                       # Number of conditional branches predicted
system.switch_cpus.branchPred.indirectHits       494793                       # Number of indirect target hits.
system.switch_cpus.branchPred.indirectLookups       603185                       # Number of indirect predictor lookups.
system.switch_cpus.branchPred.indirectMisses       108392                       # Number of indirect misses.
system.switch_cpus.branchPred.lookups          939084                       # Number of BP lookups
system.switch_cpus.branchPred.usedRAS           39463                       # Number of times the RAS was used to get a target.
system.switch_cpus.branchPredindirectMispredicted         2609                       # Number of mispredicted indirect branches.
system.switch_cpus.cc_regfile_reads          14093042                       # number of cc regfile reads
system.switch_cpus.cc_regfile_writes          7119644                       # number of cc regfile writes
system.switch_cpus.commit.amos                      0                       # Number of atomic instructions committed
system.switch_cpus.commit.branchMispredicts        19492                       # The number of times a branch was mispredicted
system.switch_cpus.commit.branches             714318                       # Number of branches committed
system.switch_cpus.commit.bw_lim_events       1283539                       # number cycles where commit BW limit reached
system.switch_cpus.commit.commitSquashedInsts      1206075                       # The number of squashed insts skipped by commit
system.switch_cpus.commit.committedInsts     10000000                       # Number of instructions committed
system.switch_cpus.commit.committedOps       16028359                       # Number of ops (including micro ops) committed
system.switch_cpus.commit.committed_per_cycle::samples      5563787                       # Number of insts commited each cycle
system.switch_cpus.commit.committed_per_cycle::mean     2.880836                       # Number of insts commited each cycle
system.switch_cpus.commit.committed_per_cycle::stdev     3.136143                       # Number of insts commited each cycle
system.switch_cpus.commit.committed_per_cycle::underflows            0      0.00%      0.00% # Number of insts commited each cycle
system.switch_cpus.commit.committed_per_cycle::0      1332176     23.94%     23.94% # Number of insts commited each cycle
system.switch_cpus.commit.committed_per_cycle::1      1873304     33.67%     57.61% # Number of insts commited each cycle
system.switch_cpus.commit.committed_per_cycle::2       403635      7.25%     64.87% # Number of insts commited each cycle
system.switch_cpus.commit.committed_per_cycle::3       187055      3.36%     68.23% # Number of insts commited each cycle
system.switch_cpus.commit.committed_per_cycle::4       147519      2.65%     70.88% # Number of insts commited each cycle
system.switch_cpus.commit.committed_per_cycle::5       143711      2.58%     73.46% # Number of insts commited each cycle
system.switch_cpus.commit.committed_per_cycle::6       140259      2.52%     75.99% # Number of insts commited each cycle
system.switch_cpus.commit.committed_per_cycle::7        52589      0.95%     76.93% # Number of insts commited each cycle
system.switch_cpus.commit.committed_per_cycle::8      1283539     23.07%    100.00% # Number of insts commited each cycle
system.switch_cpus.commit.committed_per_cycle::overflows            0      0.00%    100.00% # Number of insts commited each cycle
system.switch_cpus.commit.committed_per_cycle::min_value            0                       # Number of insts commited each cycle
system.switch_cpus.commit.committed_per_cycle::max_value            8                       # Number of insts commited each cycle
system.switch_cpus.commit.committed_per_cycle::total      5563787                       # Number of insts commited each cycle
system.switch_cpus.commit.fp_insts            1417974                       # Number of committed floating point instructions.
system.switch_cpus.commit.function_calls        31902                       # Number of function calls committed.
system.switch_cpus.commit.int_insts          14812880                       # Number of committed integer instructions.
system.switch_cpus.commit.loads               3609577                       # Number of loads committed
system.switch_cpus.commit.membars                   0                       # Number of memory barriers committed
system.switch_cpus.commit.op_class_0::No_OpClass        95071      0.59%      0.59% # Class of committed instruction
system.switch_cpus.commit.op_class_0::IntAlu      9822899     61.28%     61.88% # Class of committed instruction
system.switch_cpus.commit.op_class_0::IntMult        84240      0.53%     62.40% # Class of committed instruction
system.switch_cpus.commit.op_class_0::IntDiv            0      0.00%     62.40% # Class of committed instruction
system.switch_cpus.commit.op_class_0::FloatAdd        32039      0.20%     62.60% # Class of committed instruction
system.switch_cpus.commit.op_class_0::FloatCmp            0      0.00%     62.60% # Class of committed instruction
system.switch_cpus.commit.op_class_0::FloatCvt            0      0.00%     62.60% # Class of committed instruction
system.switch_cpus.commit.op_class_0::FloatMult            0      0.00%     62.60% # Class of committed instruction
system.switch_cpus.commit.op_class_0::FloatMultAcc            0      0.00%     62.60% # Class of committed instruction
system.switch_cpus.commit.op_class_0::FloatDiv            0      0.00%     62.60% # Class of committed instruction
system.switch_cpus.commit.op_class_0::FloatMisc            0      0.00%     62.60% # Class of committed instruction
system.switch_cpus.commit.op_class_0::FloatSqrt            0      0.00%     62.60% # Class of committed instruction
system.switch_cpus.commit.op_class_0::SimdAdd        21142      0.13%     62.73% # Class of committed instruction
system.switch_cpus.commit.op_class_0::SimdAddAcc            0      0.00%     62.73% # Class of committed instruction
system.switch_cpus.commit.op_class_0::SimdAlu       327752      2.04%     64.78% # Class of committed instruction
system.switch_cpus.commit.op_class_0::SimdCmp            0      0.00%     64.78% # Class of committed instruction
system.switch_cpus.commit.op_class_0::SimdCvt       126470      0.79%     65.57% # Class of committed instruction
system.switch_cpus.commit.op_class_0::SimdMisc       158042      0.99%     66.55% # Class of committed instruction
system.switch_cpus.commit.op_class_0::SimdMult            0      0.00%     66.55% # Class of committed instruction
system.switch_cpus.commit.op_class_0::SimdMultAcc            0      0.00%     66.55% # Class of committed instruction
system.switch_cpus.commit.op_class_0::SimdShift        63426      0.40%     66.95% # Class of committed instruction
system.switch_cpus.commit.op_class_0::SimdShiftAcc            0      0.00%     66.95% # Class of committed instruction
system.switch_cpus.commit.op_class_0::SimdDiv            0      0.00%     66.95% # Class of committed instruction
system.switch_cpus.commit.op_class_0::SimdSqrt            0      0.00%     66.95% # Class of committed instruction
system.switch_cpus.commit.op_class_0::SimdFloatAdd       107090      0.67%     67.62% # Class of committed instruction
system.switch_cpus.commit.op_class_0::SimdFloatAlu            0      0.00%     67.62% # Class of committed instruction
system.switch_cpus.commit.op_class_0::SimdFloatCmp           27      0.00%     67.62% # Class of committed instruction
system.switch_cpus.commit.op_class_0::SimdFloatCvt       149566      0.93%     68.55% # Class of committed instruction
system.switch_cpus.commit.op_class_0::SimdFloatDiv        21087      0.13%     68.68% # Class of committed instruction
system.switch_cpus.commit.op_class_0::SimdFloatMisc            0      0.00%     68.68% # Class of committed instruction
system.switch_cpus.commit.op_class_0::SimdFloatMult        10842      0.07%     68.75% # Class of committed instruction
system.switch_cpus.commit.op_class_0::SimdFloatMultAcc            0      0.00%     68.75% # Class of committed instruction
system.switch_cpus.commit.op_class_0::SimdFloatSqrt            0      0.00%     68.75% # Class of committed instruction
system.switch_cpus.commit.op_class_0::SimdReduceAdd            0      0.00%     68.75% # Class of committed instruction
system.switch_cpus.commit.op_class_0::SimdReduceAlu            0      0.00%     68.75% # Class of committed instruction
system.switch_cpus.commit.op_class_0::SimdReduceCmp            0      0.00%     68.75% # Class of committed instruction
system.switch_cpus.commit.op_class_0::SimdFloatReduceAdd            0      0.00%     68.75% # Class of committed instruction
system.switch_cpus.commit.op_class_0::SimdFloatReduceCmp            0      0.00%     68.75% # Class of committed instruction
system.switch_cpus.commit.op_class_0::SimdAes            0      0.00%     68.75% # Class of committed instruction
system.switch_cpus.commit.op_class_0::SimdAesMix            0      0.00%     68.75% # Class of committed instruction
system.switch_cpus.commit.op_class_0::SimdSha1Hash            0      0.00%     68.75% # Class of committed instruction
system.switch_cpus.commit.op_class_0::SimdSha1Hash2            0      0.00%     68.75% # Class of committed instruction
system.switch_cpus.commit.op_class_0::SimdSha256Hash            0      0.00%     68.75% # Class of committed instruction
system.switch_cpus.commit.op_class_0::SimdSha256Hash2            0      0.00%     68.75% # Class of committed instruction
system.switch_cpus.commit.op_class_0::SimdShaSigma2            0      0.00%     68.75% # Class of committed instruction
system.switch_cpus.commit.op_class_0::SimdShaSigma3            0      0.00%     68.75% # Class of committed instruction
system.switch_cpus.commit.op_class_0::SimdPredAlu            0      0.00%     68.75% # Class of committed instruction
system.switch_cpus.commit.op_class_0::MemRead      3386158     21.13%     89.88% # Class of committed instruction
system.switch_cpus.commit.op_class_0::MemWrite      1398812      8.73%     98.60% # Class of committed instruction
system.switch_cpus.commit.op_class_0::FloatMemRead       223419      1.39%    100.00% # Class of committed instruction
system.switch_cpus.commit.op_class_0::FloatMemWrite          277      0.00%    100.00% # Class of committed instruction
system.switch_cpus.commit.op_class_0::IprAccess            0      0.00%    100.00% # Class of committed instruction
system.switch_cpus.commit.op_class_0::InstPrefetch            0      0.00%    100.00% # Class of committed instruction
system.switch_cpus.commit.op_class_0::total     16028359                       # Class of committed instruction
system.switch_cpus.commit.refs                5008666                       # Number of memory references committed
system.switch_cpus.commit.swp_count                 0                       # Number of s/w prefetches committed
system.switch_cpus.commit.vec_insts                 0                       # Number of committed Vector instructions.
system.switch_cpus.committedInsts            10000000                       # Number of Instructions Simulated
system.switch_cpus.committedOps              16028359                       # Number of Ops (including micro ops) Simulated
system.switch_cpus.cpi                       0.573691                       # CPI: Cycles Per Instruction
system.switch_cpus.cpi_total                 0.573691                       # CPI: Total CPI of All Threads
system.switch_cpus.decode.BlockedCycles       2833829                       # Number of cycles decode is blocked
system.switch_cpus.decode.DecodedInsts       17573417                       # Number of instructions handled by decode
system.switch_cpus.decode.IdleCycles           558509                       # Number of cycles decode is idle
system.switch_cpus.decode.RunCycles           1525510                       # Number of cycles decode is running
system.switch_cpus.decode.SquashCycles          19731                       # Number of cycles decode is squashing
system.switch_cpus.decode.UnblockCycles        787946                       # Number of cycles decode is unblocking
system.switch_cpus.dtb.rdAccesses             3690966                       # TLB accesses on read requests
system.switch_cpus.dtb.rdMisses                    86                       # TLB misses on read requests
system.switch_cpus.dtb.wrAccesses             1410335                       # TLB accesses on write requests
system.switch_cpus.dtb.wrMisses                   129                       # TLB misses on write requests
system.switch_cpus.fetch.Branches              939084                       # Number of branches that fetch encountered
system.switch_cpus.fetch.CacheLines            846706                       # Number of cache lines fetched
system.switch_cpus.fetch.Cycles               4845718                       # Number of cycles fetch has run and was not squashing or blocked
system.switch_cpus.fetch.IcacheSquashes          3371                       # Number of outstanding Icache misses that were squashed
system.switch_cpus.fetch.Insts               10928880                       # Number of instructions fetch has processed
system.switch_cpus.fetch.MiscStallCycles           27                       # Number of cycles fetch has spent waiting on interrupts, or bad addresses, or out of MSHRs
system.switch_cpus.fetch.PendingTrapStallCycles          164                       # Number of stall cycles due to pending traps
system.switch_cpus.fetch.SquashCycles           39462                       # Number of cycles fetch has spent squashing
system.switch_cpus.fetch.branchRate          0.163692                       # Number of branch fetches per cycle
system.switch_cpus.fetch.icacheStallCycles       859891                       # Number of cycles fetch is stalled on an Icache miss
system.switch_cpus.fetch.predictedBranches       534256                       # Number of branches that fetch has predicted taken
system.switch_cpus.fetch.rate                1.905012                       # Number of inst fetches per cycle
system.switch_cpus.fetch.rateDist::samples      5725531                       # Number of instructions fetched each cycle (Total)
system.switch_cpus.fetch.rateDist::mean      3.109890                       # Number of instructions fetched each cycle (Total)
system.switch_cpus.fetch.rateDist::stdev     3.529631                       # Number of instructions fetched each cycle (Total)
system.switch_cpus.fetch.rateDist::underflows            0      0.00%      0.00% # Number of instructions fetched each cycle (Total)
system.switch_cpus.fetch.rateDist::0          2926113     51.11%     51.11% # Number of instructions fetched each cycle (Total)
system.switch_cpus.fetch.rateDist::1           139650      2.44%     53.55% # Number of instructions fetched each cycle (Total)
system.switch_cpus.fetch.rateDist::2           101961      1.78%     55.33% # Number of instructions fetched each cycle (Total)
system.switch_cpus.fetch.rateDist::3           147460      2.58%     57.90% # Number of instructions fetched each cycle (Total)
system.switch_cpus.fetch.rateDist::4           179860      3.14%     61.04% # Number of instructions fetched each cycle (Total)
system.switch_cpus.fetch.rateDist::5           336292      5.87%     66.92% # Number of instructions fetched each cycle (Total)
system.switch_cpus.fetch.rateDist::6           167886      2.93%     69.85% # Number of instructions fetched each cycle (Total)
system.switch_cpus.fetch.rateDist::7           198868      3.47%     73.32% # Number of instructions fetched each cycle (Total)
system.switch_cpus.fetch.rateDist::8          1527441     26.68%    100.00% # Number of instructions fetched each cycle (Total)
system.switch_cpus.fetch.rateDist::overflows            0      0.00%    100.00% # Number of instructions fetched each cycle (Total)
system.switch_cpus.fetch.rateDist::min_value            0                       # Number of instructions fetched each cycle (Total)
system.switch_cpus.fetch.rateDist::max_value            8                       # Number of instructions fetched each cycle (Total)
system.switch_cpus.fetch.rateDist::total      5725531                       # Number of instructions fetched each cycle (Total)
system.switch_cpus.fp_regfile_reads           2734263                       # number of floating regfile reads
system.switch_cpus.fp_regfile_writes          1362111                       # number of floating regfile writes
system.switch_cpus.idleCycles                   11379                       # Total number of cycles that the CPU has spent unscheduled due to idling
system.switch_cpus.iew.branchMispredicts        33211                       # Number of branch mispredicts detected at execute
system.switch_cpus.iew.exec_branches           776902                       # Number of branches executed
system.switch_cpus.iew.exec_nop                     0                       # number of nop insts executed
system.switch_cpus.iew.exec_rate             2.917289                       # Inst execution rate
system.switch_cpus.iew.exec_refs              5095936                       # number of memory reference insts executed
system.switch_cpus.iew.exec_stores            1410335                       # Number of stores executed
system.switch_cpus.iew.exec_swp                     0                       # number of swp insts executed
system.switch_cpus.iew.iewBlockCycles          149027                       # Number of cycles IEW is blocking
system.switch_cpus.iew.iewDispLoadInsts       3717559                       # Number of dispatched load instructions
system.switch_cpus.iew.iewDispNonSpecInsts            9                       # Number of dispatched non-speculative instructions
system.switch_cpus.iew.iewDispSquashedInsts          450                       # Number of squashed instructions skipped by dispatch
system.switch_cpus.iew.iewDispStoreInsts      1425212                       # Number of dispatched store instructions
system.switch_cpus.iew.iewDispatchedInsts     17234455                       # Number of instructions dispatched to IQ
system.switch_cpus.iew.iewExecLoadInsts       3685601                       # Number of load instructions executed
system.switch_cpus.iew.iewExecSquashedInsts        31310                       # Number of squashed instructions skipped in execute
system.switch_cpus.iew.iewExecutedInsts      16736225                       # Number of executed instructions
system.switch_cpus.iew.iewIQFullEvents            191                       # Number of times the IQ has become full, causing a stall
system.switch_cpus.iew.iewIdleCycles                0                       # Number of cycles IEW is idle
system.switch_cpus.iew.iewLSQFullEvents        130368                       # Number of times the LSQ has become full, causing a stall
system.switch_cpus.iew.iewSquashCycles          19731                       # Number of cycles IEW is squashing
system.switch_cpus.iew.iewUnblockCycles        131351                       # Number of cycles IEW is unblocking
system.switch_cpus.iew.lsq.thread0.blockedLoads            0                       # Number of blocked loads due to partial load-store forwarding
system.switch_cpus.iew.lsq.thread0.cacheBlocked          193                       # Number of times an access to memory failed due to the cache being blocked
system.switch_cpus.iew.lsq.thread0.forwLoads       391127                       # Number of loads that had data forwarded from stores
system.switch_cpus.iew.lsq.thread0.ignoredResponses           63                       # Number of memory responses ignored because the instruction is squashed
system.switch_cpus.iew.lsq.thread0.invAddrLoads            0                       # Number of loads ignored due to an invalid address
system.switch_cpus.iew.lsq.thread0.invAddrSwpfs            0                       # Number of software prefetches ignored due to an invalid address
system.switch_cpus.iew.lsq.thread0.memOrderViolation          269                       # Number of memory ordering violations
system.switch_cpus.iew.lsq.thread0.rescheduledLoads            0                       # Number of loads that were rescheduled
system.switch_cpus.iew.lsq.thread0.squashedLoads       107970                       # Number of loads squashed
system.switch_cpus.iew.lsq.thread0.squashedStores        26113                       # Number of stores squashed
system.switch_cpus.iew.memOrderViolationEvents          269                       # Number of memory order violations
system.switch_cpus.iew.predictedNotTakenIncorrect        28465                       # Number of branches that were predicted not taken incorrectly
system.switch_cpus.iew.predictedTakenIncorrect         4746                       # Number of branches that were predicted taken incorrectly
system.switch_cpus.iew.wb_consumers          26956263                       # num instructions consuming a value
system.switch_cpus.iew.wb_count              16719895                       # cumulative count of insts written-back
system.switch_cpus.iew.wb_fanout             0.498025                       # average fanout of values written-back
system.switch_cpus.iew.wb_producers          13424905                       # num instructions producing a value
system.switch_cpus.iew.wb_rate               2.914443                       # insts written-back per cycle
system.switch_cpus.iew.wb_sent               16726483                       # cumulative count of insts sent to commit
system.switch_cpus.int_regfile_reads         28998982                       # number of integer regfile reads
system.switch_cpus.int_regfile_writes        13068221                       # number of integer regfile writes
system.switch_cpus.ipc                       1.743099                       # IPC: Instructions Per Cycle
system.switch_cpus.ipc_total                 1.743099                       # IPC: Total IPC of All Threads
system.switch_cpus.iq.FU_type_0::No_OpClass        99923      0.60%      0.60% # Type of FU issued
system.switch_cpus.iq.FU_type_0::IntAlu      10377267     61.89%     62.48% # Type of FU issued
system.switch_cpus.iq.FU_type_0::IntMult        85937      0.51%     63.00% # Type of FU issued
system.switch_cpus.iq.FU_type_0::IntDiv             0      0.00%     63.00% # Type of FU issued
system.switch_cpus.iq.FU_type_0::FloatAdd        34533      0.21%     63.20% # Type of FU issued
system.switch_cpus.iq.FU_type_0::FloatCmp            0      0.00%     63.20% # Type of FU issued
system.switch_cpus.iq.FU_type_0::FloatCvt            0      0.00%     63.20% # Type of FU issued
system.switch_cpus.iq.FU_type_0::FloatMult            0      0.00%     63.20% # Type of FU issued
system.switch_cpus.iq.FU_type_0::FloatMultAcc            0      0.00%     63.20% # Type of FU issued
system.switch_cpus.iq.FU_type_0::FloatDiv            0      0.00%     63.20% # Type of FU issued
system.switch_cpus.iq.FU_type_0::FloatMisc            0      0.00%     63.20% # Type of FU issued
system.switch_cpus.iq.FU_type_0::FloatSqrt            0      0.00%     63.20% # Type of FU issued
system.switch_cpus.iq.FU_type_0::SimdAdd        21142      0.13%     63.33% # Type of FU issued
system.switch_cpus.iq.FU_type_0::SimdAddAcc            0      0.00%     63.33% # Type of FU issued
system.switch_cpus.iq.FU_type_0::SimdAlu       341370      2.04%     65.37% # Type of FU issued
system.switch_cpus.iq.FU_type_0::SimdCmp            0      0.00%     65.37% # Type of FU issued
system.switch_cpus.iq.FU_type_0::SimdCvt       128793      0.77%     66.13% # Type of FU issued
system.switch_cpus.iq.FU_type_0::SimdMisc       159975      0.95%     67.09% # Type of FU issued
system.switch_cpus.iq.FU_type_0::SimdMult            0      0.00%     67.09% # Type of FU issued
system.switch_cpus.iq.FU_type_0::SimdMultAcc            0      0.00%     67.09% # Type of FU issued
system.switch_cpus.iq.FU_type_0::SimdShift        63492      0.38%     67.47% # Type of FU issued
system.switch_cpus.iq.FU_type_0::SimdShiftAcc            0      0.00%     67.47% # Type of FU issued
system.switch_cpus.iq.FU_type_0::SimdDiv            0      0.00%     67.47% # Type of FU issued
system.switch_cpus.iq.FU_type_0::SimdSqrt            0      0.00%     67.47% # Type of FU issued
system.switch_cpus.iq.FU_type_0::SimdFloatAdd       138581      0.83%     68.29% # Type of FU issued
system.switch_cpus.iq.FU_type_0::SimdFloatAlu            0      0.00%     68.29% # Type of FU issued
system.switch_cpus.iq.FU_type_0::SimdFloatCmp           51      0.00%     68.29% # Type of FU issued
system.switch_cpus.iq.FU_type_0::SimdFloatCvt       175327      1.05%     69.34% # Type of FU issued
system.switch_cpus.iq.FU_type_0::SimdFloatDiv        23011      0.14%     69.48% # Type of FU issued
system.switch_cpus.iq.FU_type_0::SimdFloatMisc            0      0.00%     69.48% # Type of FU issued
system.switch_cpus.iq.FU_type_0::SimdFloatMult        12813      0.08%     69.55% # Type of FU issued
system.switch_cpus.iq.FU_type_0::SimdFloatMultAcc            0      0.00%     69.55% # Type of FU issued
system.switch_cpus.iq.FU_type_0::SimdFloatSqrt            0      0.00%     69.55% # Type of FU issued
system.switch_cpus.iq.FU_type_0::SimdReduceAdd            0      0.00%     69.55% # Type of FU issued
system.switch_cpus.iq.FU_type_0::SimdReduceAlu            0      0.00%     69.55% # Type of FU issued
system.switch_cpus.iq.FU_type_0::SimdReduceCmp            0      0.00%     69.55% # Type of FU issued
system.switch_cpus.iq.FU_type_0::SimdFloatReduceAdd            0      0.00%     69.55% # Type of FU issued
system.switch_cpus.iq.FU_type_0::SimdFloatReduceCmp            0      0.00%     69.55% # Type of FU issued
system.switch_cpus.iq.FU_type_0::SimdAes            0      0.00%     69.55% # Type of FU issued
system.switch_cpus.iq.FU_type_0::SimdAesMix            0      0.00%     69.55% # Type of FU issued
system.switch_cpus.iq.FU_type_0::SimdSha1Hash            0      0.00%     69.55% # Type of FU issued
system.switch_cpus.iq.FU_type_0::SimdSha1Hash2            0      0.00%     69.55% # Type of FU issued
system.switch_cpus.iq.FU_type_0::SimdSha256Hash            0      0.00%     69.55% # Type of FU issued
system.switch_cpus.iq.FU_type_0::SimdSha256Hash2            0      0.00%     69.55% # Type of FU issued
system.switch_cpus.iq.FU_type_0::SimdShaSigma2            0      0.00%     69.55% # Type of FU issued
system.switch_cpus.iq.FU_type_0::SimdShaSigma3            0      0.00%     69.55% # Type of FU issued
system.switch_cpus.iq.FU_type_0::SimdPredAlu            0      0.00%     69.55% # Type of FU issued
system.switch_cpus.iq.FU_type_0::MemRead      3415048     20.37%     89.92% # Type of FU issued
system.switch_cpus.iq.FU_type_0::MemWrite      1411522      8.42%     98.34% # Type of FU issued
system.switch_cpus.iq.FU_type_0::FloatMemRead       278348      1.66%    100.00% # Type of FU issued
system.switch_cpus.iq.FU_type_0::FloatMemWrite          403      0.00%    100.00% # Type of FU issued
system.switch_cpus.iq.FU_type_0::IprAccess            0      0.00%    100.00% # Type of FU issued
system.switch_cpus.iq.FU_type_0::InstPrefetch            0      0.00%    100.00% # Type of FU issued
system.switch_cpus.iq.FU_type_0::total       16767536                       # Type of FU issued
system.switch_cpus.iq.fp_alu_accesses         1576266                       # Number of floating point alu accesses
system.switch_cpus.iq.fp_inst_queue_reads      3133006                       # Number of floating instruction queue reads
system.switch_cpus.iq.fp_inst_queue_wakeup_accesses      1539500                       # Number of floating instruction queue wakeup accesses
system.switch_cpus.iq.fp_inst_queue_writes      1886034                       # Number of floating instruction queue writes
system.switch_cpus.iq.fu_busy_cnt              192664                       # FU busy when requested
system.switch_cpus.iq.fu_busy_rate           0.011490                       # FU busy rate (busy events/executed inst)
system.switch_cpus.iq.fu_full::No_OpClass            0      0.00%      0.00% # attempts to use FU when none available
system.switch_cpus.iq.fu_full::IntAlu          113259     58.79%     58.79% # attempts to use FU when none available
system.switch_cpus.iq.fu_full::IntMult              0      0.00%     58.79% # attempts to use FU when none available
system.switch_cpus.iq.fu_full::IntDiv               0      0.00%     58.79% # attempts to use FU when none available
system.switch_cpus.iq.fu_full::FloatAdd             0      0.00%     58.79% # attempts to use FU when none available
system.switch_cpus.iq.fu_full::FloatCmp             0      0.00%     58.79% # attempts to use FU when none available
system.switch_cpus.iq.fu_full::FloatCvt             0      0.00%     58.79% # attempts to use FU when none available
system.switch_cpus.iq.fu_full::FloatMult            0      0.00%     58.79% # attempts to use FU when none available
system.switch_cpus.iq.fu_full::FloatMultAcc            0      0.00%     58.79% # attempts to use FU when none available
system.switch_cpus.iq.fu_full::FloatDiv             0      0.00%     58.79% # attempts to use FU when none available
system.switch_cpus.iq.fu_full::FloatMisc            0      0.00%     58.79% # attempts to use FU when none available
system.switch_cpus.iq.fu_full::FloatSqrt            0      0.00%     58.79% # attempts to use FU when none available
system.switch_cpus.iq.fu_full::SimdAdd              0      0.00%     58.79% # attempts to use FU when none available
system.switch_cpus.iq.fu_full::SimdAddAcc            0      0.00%     58.79% # attempts to use FU when none available
system.switch_cpus.iq.fu_full::SimdAlu             93      0.05%     58.83% # attempts to use FU when none available
system.switch_cpus.iq.fu_full::SimdCmp              0      0.00%     58.83% # attempts to use FU when none available
system.switch_cpus.iq.fu_full::SimdCvt           3408      1.77%     60.60% # attempts to use FU when none available
system.switch_cpus.iq.fu_full::SimdMisc            11      0.01%     60.61% # attempts to use FU when none available
system.switch_cpus.iq.fu_full::SimdMult             0      0.00%     60.61% # attempts to use FU when none available
system.switch_cpus.iq.fu_full::SimdMultAcc            0      0.00%     60.61% # attempts to use FU when none available
system.switch_cpus.iq.fu_full::SimdShift            1      0.00%     60.61% # attempts to use FU when none available
system.switch_cpus.iq.fu_full::SimdShiftAcc            0      0.00%     60.61% # attempts to use FU when none available
system.switch_cpus.iq.fu_full::SimdDiv              0      0.00%     60.61% # attempts to use FU when none available
system.switch_cpus.iq.fu_full::SimdSqrt             0      0.00%     60.61% # attempts to use FU when none available
system.switch_cpus.iq.fu_full::SimdFloatAdd         2189      1.14%     61.75% # attempts to use FU when none available
system.switch_cpus.iq.fu_full::SimdFloatAlu            0      0.00%     61.75% # attempts to use FU when none available
system.switch_cpus.iq.fu_full::SimdFloatCmp            0      0.00%     61.75% # attempts to use FU when none available
system.switch_cpus.iq.fu_full::SimdFloatCvt         9870      5.12%     66.87% # attempts to use FU when none available
system.switch_cpus.iq.fu_full::SimdFloatDiv            0      0.00%     66.87% # attempts to use FU when none available
system.switch_cpus.iq.fu_full::SimdFloatMisc            0      0.00%     66.87% # attempts to use FU when none available
system.switch_cpus.iq.fu_full::SimdFloatMult            0      0.00%     66.87% # attempts to use FU when none available
system.switch_cpus.iq.fu_full::SimdFloatMultAcc            0      0.00%     66.87% # attempts to use FU when none available
system.switch_cpus.iq.fu_full::SimdFloatSqrt            0      0.00%     66.87% # attempts to use FU when none available
system.switch_cpus.iq.fu_full::SimdReduceAdd            0      0.00%     66.87% # attempts to use FU when none available
system.switch_cpus.iq.fu_full::SimdReduceAlu            0      0.00%     66.87% # attempts to use FU when none available
system.switch_cpus.iq.fu_full::SimdReduceCmp            0      0.00%     66.87% # attempts to use FU when none available
system.switch_cpus.iq.fu_full::SimdFloatReduceAdd            0      0.00%     66.87% # attempts to use FU when none available
system.switch_cpus.iq.fu_full::SimdFloatReduceCmp            0      0.00%     66.87% # attempts to use FU when none available
system.switch_cpus.iq.fu_full::SimdAes              0      0.00%     66.87% # attempts to use FU when none available
system.switch_cpus.iq.fu_full::SimdAesMix            0      0.00%     66.87% # attempts to use FU when none available
system.switch_cpus.iq.fu_full::SimdSha1Hash            0      0.00%     66.87% # attempts to use FU when none available
system.switch_cpus.iq.fu_full::SimdSha1Hash2            0      0.00%     66.87% # attempts to use FU when none available
system.switch_cpus.iq.fu_full::SimdSha256Hash            0      0.00%     66.87% # attempts to use FU when none available
system.switch_cpus.iq.fu_full::SimdSha256Hash2            0      0.00%     66.87% # attempts to use FU when none available
system.switch_cpus.iq.fu_full::SimdShaSigma2            0      0.00%     66.87% # attempts to use FU when none available
system.switch_cpus.iq.fu_full::SimdShaSigma3            0      0.00%     66.87% # attempts to use FU when none available
system.switch_cpus.iq.fu_full::SimdPredAlu            0      0.00%     66.87% # attempts to use FU when none available
system.switch_cpus.iq.fu_full::MemRead          58805     30.52%     97.39% # attempts to use FU when none available
system.switch_cpus.iq.fu_full::MemWrite           617      0.32%     97.71% # attempts to use FU when none available
system.switch_cpus.iq.fu_full::FloatMemRead         4411      2.29%    100.00% # attempts to use FU when none available
system.switch_cpus.iq.fu_full::FloatMemWrite            0      0.00%    100.00% # attempts to use FU when none available
system.switch_cpus.iq.fu_full::IprAccess            0      0.00%    100.00% # attempts to use FU when none available
system.switch_cpus.iq.fu_full::InstPrefetch            0      0.00%    100.00% # attempts to use FU when none available
system.switch_cpus.iq.int_alu_accesses       15284011                       # Number of integer alu accesses
system.switch_cpus.iq.int_inst_queue_reads     36397314                       # Number of integer instruction queue reads
system.switch_cpus.iq.int_inst_queue_wakeup_accesses     15180395                       # Number of integer instruction queue wakeup accesses
system.switch_cpus.iq.int_inst_queue_writes     16554728                       # Number of integer instruction queue writes
system.switch_cpus.iq.iqInstsAdded           17234430                       # Number of instructions added to the IQ (excludes non-spec)
system.switch_cpus.iq.iqInstsIssued          16767536                       # Number of instructions issued
system.switch_cpus.iq.iqNonSpecInstsAdded           25                       # Number of non-speculative instructions added to the IQ
system.switch_cpus.iq.iqSquashedInstsExamined      1206040                       # Number of squashed instructions iterated over during squash; mainly for profiling
system.switch_cpus.iq.iqSquashedInstsIssued        77054                       # Number of squashed instructions issued
system.switch_cpus.iq.iqSquashedNonSpecRemoved           25                       # Number of squashed non-spec instructions that were removed
system.switch_cpus.iq.iqSquashedOperandsExamined      1739136                       # Number of squashed operands that are examined and possibly removed from graph
system.switch_cpus.iq.issued_per_cycle::samples      5725531                       # Number of insts issued each cycle
system.switch_cpus.iq.issued_per_cycle::mean     2.928556                       # Number of insts issued each cycle
system.switch_cpus.iq.issued_per_cycle::stdev     2.340092                       # Number of insts issued each cycle
system.switch_cpus.iq.issued_per_cycle::underflows            0      0.00%      0.00% # Number of insts issued each cycle
system.switch_cpus.iq.issued_per_cycle::0      1234341     21.56%     21.56% # Number of insts issued each cycle
system.switch_cpus.iq.issued_per_cycle::1       592970     10.36%     31.92% # Number of insts issued each cycle
system.switch_cpus.iq.issued_per_cycle::2       859469     15.01%     46.93% # Number of insts issued each cycle
system.switch_cpus.iq.issued_per_cycle::3       844223     14.74%     61.67% # Number of insts issued each cycle
system.switch_cpus.iq.issued_per_cycle::4       707001     12.35%     74.02% # Number of insts issued each cycle
system.switch_cpus.iq.issued_per_cycle::5       618967     10.81%     84.83% # Number of insts issued each cycle
system.switch_cpus.iq.issued_per_cycle::6       340175      5.94%     90.77% # Number of insts issued each cycle
system.switch_cpus.iq.issued_per_cycle::7       268010      4.68%     95.45% # Number of insts issued each cycle
system.switch_cpus.iq.issued_per_cycle::8       260375      4.55%    100.00% # Number of insts issued each cycle
system.switch_cpus.iq.issued_per_cycle::overflows            0      0.00%    100.00% # Number of insts issued each cycle
system.switch_cpus.iq.issued_per_cycle::min_value            0                       # Number of insts issued each cycle
system.switch_cpus.iq.issued_per_cycle::max_value            8                       # Number of insts issued each cycle
system.switch_cpus.iq.issued_per_cycle::total      5725531                       # Number of insts issued each cycle
system.switch_cpus.iq.rate                   2.922747                       # Inst issue rate
system.switch_cpus.iq.vec_alu_accesses              0                       # Number of vector alu accesses
system.switch_cpus.iq.vec_inst_queue_reads            0                       # Number of vector instruction queue reads
system.switch_cpus.iq.vec_inst_queue_wakeup_accesses            0                       # Number of vector instruction queue wakeup accesses
system.switch_cpus.iq.vec_inst_queue_writes            0                       # Number of vector instruction queue writes
system.switch_cpus.itb.rdAccesses                   0                       # TLB accesses on read requests
system.switch_cpus.itb.rdMisses                     0                       # TLB misses on read requests
system.switch_cpus.itb.wrAccesses              846734                       # TLB accesses on write requests
system.switch_cpus.itb.wrMisses                    45                       # TLB misses on write requests
system.switch_cpus.memDep0.conflictingLoads       360180                       # Number of conflicting loads.
system.switch_cpus.memDep0.conflictingStores       284265                       # Number of conflicting stores.
system.switch_cpus.memDep0.insertedLoads      3717559                       # Number of loads inserted to the mem dependence unit.
system.switch_cpus.memDep0.insertedStores      1425212                       # Number of stores inserted to the mem dependence unit.
system.switch_cpus.misc_regfile_reads         6719611                       # number of misc regfile reads
system.switch_cpus.misc_regfile_writes              1                       # number of misc regfile writes
system.switch_cpus.numCycles                  5736910                       # number of cpu cycles simulated
system.switch_cpus.numWorkItemsCompleted            0                       # number of work items this cpu completed
system.switch_cpus.numWorkItemsStarted              0                       # number of work items this cpu started
system.switch_cpus.rename.BlockCycles          343683                       # Number of cycles rename is blocking
system.switch_cpus.rename.CommittedMaps      20724563                       # Number of HB maps that are committed
system.switch_cpus.rename.IQFullEvents         131471                       # Number of times rename has blocked due to IQ full
system.switch_cpus.rename.IdleCycles           870743                       # Number of cycles rename is idle
system.switch_cpus.rename.LQFullEvents         499068                       # Number of times rename has blocked due to LQ full
system.switch_cpus.rename.ROBFullEvents          4246                       # Number of times rename has blocked due to ROB full
system.switch_cpus.rename.RenameLookups      54850393                       # Number of register rename lookups that rename has made
system.switch_cpus.rename.RenamedInsts       17459740                       # Number of instructions processed by rename
system.switch_cpus.rename.RenamedOperands     22434776                       # Number of destination operands rename has renamed
system.switch_cpus.rename.RunCycles           1990732                       # Number of cycles rename is running
system.switch_cpus.rename.SQFullEvents        1605404                       # Number of times rename has blocked due to SQ full
system.switch_cpus.rename.SquashCycles          19731                       # Number of cycles rename is squashing
system.switch_cpus.rename.UnblockCycles       2500628                       # Number of cycles rename is unblocking
system.switch_cpus.rename.UndoneMaps          1710132                       # Number of HB maps that are undone due to squashing
system.switch_cpus.rename.fp_rename_lookups      2999154                       # Number of floating rename lookups
system.switch_cpus.rename.int_rename_lookups     29985453                       # Number of integer rename lookups
system.switch_cpus.rename.serializeStallCycles            8                       # count of cycles rename stalled for serializing inst
system.switch_cpus.rename.serializingInsts            1                       # count of serializing insts renamed
system.switch_cpus.rename.skidInsts           4168256                       # count of insts added to the skid buffer
system.switch_cpus.rename.tempSerializingInsts            1                       # count of temporary serializing insts renamed
system.switch_cpus.rob.rob_reads             21514682                       # The number of ROB reads
system.switch_cpus.rob.rob_writes            34631285                       # The number of ROB writes
system.switch_cpus.timesIdled                     151                       # Number of times that the entire CPU went into an idle state and unscheduled itself
system.tol2bus.snoop_filter.hit_multi_requests            0                       # Number of requests hitting in the snoop filter with multiple (>1) holders of the requested data.
system.tol2bus.snoop_filter.hit_multi_snoops            0                       # Number of snoops hitting in the snoop filter with multiple (>1) holders of the requested data.
system.tol2bus.snoop_filter.hit_single_requests        24599                       # Number of requests hitting in the snoop filter with a single holder of the requested data.
system.tol2bus.snoop_filter.hit_single_snoops         4205                       # Number of snoops hitting in the snoop filter with a single holder of the requested data.
system.tol2bus.snoop_filter.tot_requests        50351                       # Total number of requests made to the snoop filter.
system.tol2bus.snoop_filter.tot_snoops           4205                       # Total number of snoops made to the snoop filter.
system.membus.pwrStateResidencyTicks::UNDEFINED 70893077741500                       # Cumulative time (in ticks) in various power states
system.membus.trans_dist::ReadResp               2316                       # Transaction distribution
system.membus.trans_dist::WritebackDirty         3908                       # Transaction distribution
system.membus.trans_dist::CleanEvict             1698                       # Transaction distribution
system.membus.trans_dist::ReadExReq              5493                       # Transaction distribution
system.membus.trans_dist::ReadExResp             5493                       # Transaction distribution
system.membus.trans_dist::ReadSharedReq          2316                       # Transaction distribution
system.membus.pkt_count_system.l2.mem_side::system.mem_ctrls.port        21224                       # Packet count per connected master and slave (bytes)
system.membus.pkt_count_system.l2.mem_side::total        21224                       # Packet count per connected master and slave (bytes)
system.membus.pkt_count::total                  21224                       # Packet count per connected master and slave (bytes)
system.membus.pkt_size_system.l2.mem_side::system.mem_ctrls.port       749888                       # Cumulative packet size per connected master and slave (bytes)
system.membus.pkt_size_system.l2.mem_side::total       749888                       # Cumulative packet size per connected master and slave (bytes)
system.membus.pkt_size::total                  749888                       # Cumulative packet size per connected master and slave (bytes)
system.membus.snoops                                0                       # Total snoops (count)
system.membus.snoopTraffic                          0                       # Total snoop traffic (bytes)
system.membus.snoop_fanout::samples              7809                       # Request fanout histogram
system.membus.snoop_fanout::mean                    0                       # Request fanout histogram
system.membus.snoop_fanout::stdev                   0                       # Request fanout histogram
system.membus.snoop_fanout::underflows              0      0.00%      0.00% # Request fanout histogram
system.membus.snoop_fanout::0                    7809    100.00%    100.00% # Request fanout histogram
system.membus.snoop_fanout::1                       0      0.00%    100.00% # Request fanout histogram
system.membus.snoop_fanout::overflows               0      0.00%    100.00% # Request fanout histogram
system.membus.snoop_fanout::min_value               0                       # Request fanout histogram
system.membus.snoop_fanout::max_value               0                       # Request fanout histogram
system.membus.snoop_fanout::total                7809                       # Request fanout histogram
system.membus.reqLayer2.occupancy            30829500                       # Layer occupancy (ticks)
system.membus.reqLayer2.utilization               1.1                       # Layer utilization (%)
system.membus.respLayer1.occupancy           41468500                       # Layer occupancy (ticks)
system.membus.respLayer1.utilization              1.4                       # Layer utilization (%)
system.switch_cpus.pwrStateResidencyTicks::OFF   2868465250                       # Cumulative time (in ticks) in various power states
system.switch_cpus.dtb.walker.pwrStateResidencyTicks::UNDEFINED 70893077741500                       # Cumulative time (in ticks) in various power states
system.switch_cpus.itb.walker.pwrStateResidencyTicks::UNDEFINED 70893077741500                       # Cumulative time (in ticks) in various power states
system.tol2bus.pwrStateResidencyTicks::UNDEFINED 70893077741500                       # Cumulative time (in ticks) in various power states
system.tol2bus.trans_dist::ReadResp              5853                       # Transaction distribution
system.tol2bus.trans_dist::WritebackDirty        23480                       # Transaction distribution
system.tol2bus.trans_dist::WritebackClean          200                       # Transaction distribution
system.tol2bus.trans_dist::CleanEvict            9511                       # Transaction distribution
system.tol2bus.trans_dist::ReadExReq            19899                       # Transaction distribution
system.tol2bus.trans_dist::ReadExResp           19898                       # Transaction distribution
system.tol2bus.trans_dist::ReadCleanReq           328                       # Transaction distribution
system.tol2bus.trans_dist::ReadSharedReq         5525                       # Transaction distribution
system.tol2bus.pkt_count_system.cpu.icache.mem_side::system.l2.cpu_side          856                       # Packet count per connected master and slave (bytes)
system.tol2bus.pkt_count_system.cpu.dcache.mem_side::system.l2.cpu_side        75246                       # Packet count per connected master and slave (bytes)
system.tol2bus.pkt_count::total                 76102                       # Packet count per connected master and slave (bytes)
system.tol2bus.pkt_size_system.cpu.icache.mem_side::system.l2.cpu_side        33792                       # Cumulative packet size per connected master and slave (bytes)
system.tol2bus.pkt_size_system.cpu.dcache.mem_side::system.l2.cpu_side      2879680                       # Cumulative packet size per connected master and slave (bytes)
system.tol2bus.pkt_size::total                2913472                       # Cumulative packet size per connected master and slave (bytes)
system.tol2bus.snoops                            8592                       # Total snoops (count)
system.tol2bus.snoopTraffic                    250112                       # Total snoop traffic (bytes)
system.tol2bus.snoop_fanout::samples            34344                       # Request fanout histogram
system.tol2bus.snoop_fanout::mean            0.122438                       # Request fanout histogram
system.tol2bus.snoop_fanout::stdev           0.327795                       # Request fanout histogram
system.tol2bus.snoop_fanout::underflows             0      0.00%      0.00% # Request fanout histogram
system.tol2bus.snoop_fanout::0                  30139     87.76%     87.76% # Request fanout histogram
system.tol2bus.snoop_fanout::1                   4205     12.24%    100.00% # Request fanout histogram
system.tol2bus.snoop_fanout::2                      0      0.00%    100.00% # Request fanout histogram
system.tol2bus.snoop_fanout::3                      0      0.00%    100.00% # Request fanout histogram
system.tol2bus.snoop_fanout::4                      0      0.00%    100.00% # Request fanout histogram
system.tol2bus.snoop_fanout::overflows              0      0.00%    100.00% # Request fanout histogram
system.tol2bus.snoop_fanout::min_value              0                       # Request fanout histogram
system.tol2bus.snoop_fanout::max_value              1                       # Request fanout histogram
system.tol2bus.snoop_fanout::total              34344                       # Request fanout histogram
system.tol2bus.reqLayer0.occupancy           44943500                       # Layer occupancy (ticks)
system.tol2bus.reqLayer0.utilization              1.6                       # Layer utilization (%)
system.tol2bus.respLayer1.occupancy          38125500                       # Layer occupancy (ticks)
system.tol2bus.respLayer1.utilization             1.3                       # Layer utilization (%)
system.tol2bus.respLayer0.occupancy            489998                       # Layer occupancy (ticks)
system.tol2bus.respLayer0.utilization             0.0                       # Layer utilization (%)
system.voltage_domain.voltage                       1                       # Voltage in Volts
system.clk_domain.clock                          1000                       # Clock period in ticks
system.l2.pwrStateResidencyTicks::UNDEFINED 70893077741500                       # Cumulative time (in ticks) in various power states
system.l2.demand_hits::.switch_cpus.inst          175                       # number of demand (read+write) hits
system.l2.demand_hits::.switch_cpus.data        17768                       # number of demand (read+write) hits
system.l2.demand_hits::total                    17943                       # number of demand (read+write) hits
system.l2.overall_hits::.switch_cpus.inst          175                       # number of overall hits
system.l2.overall_hits::.switch_cpus.data        17768                       # number of overall hits
system.l2.overall_hits::total                   17943                       # number of overall hits
system.l2.demand_misses::.cpu.inst                  2                       # number of demand (read+write) misses
system.l2.demand_misses::.cpu.data                  6                       # number of demand (read+write) misses
system.l2.demand_misses::.switch_cpus.inst          151                       # number of demand (read+write) misses
system.l2.demand_misses::.switch_cpus.data         7650                       # number of demand (read+write) misses
system.l2.demand_misses::total                   7809                       # number of demand (read+write) misses
system.l2.overall_misses::.cpu.inst                 2                       # number of overall misses
system.l2.overall_misses::.cpu.data                 6                       # number of overall misses
system.l2.overall_misses::.switch_cpus.inst          151                       # number of overall misses
system.l2.overall_misses::.switch_cpus.data         7650                       # number of overall misses
system.l2.overall_misses::total                  7809                       # number of overall misses
system.l2.demand_miss_latency::.switch_cpus.inst     12237000                       # number of demand (read+write) miss cycles
system.l2.demand_miss_latency::.switch_cpus.data    604786000                       # number of demand (read+write) miss cycles
system.l2.demand_miss_latency::total        617023000                       # number of demand (read+write) miss cycles
system.l2.overall_miss_latency::.switch_cpus.inst     12237000                       # number of overall miss cycles
system.l2.overall_miss_latency::.switch_cpus.data    604786000                       # number of overall miss cycles
system.l2.overall_miss_latency::total       617023000                       # number of overall miss cycles
system.l2.demand_accesses::.cpu.inst                2                       # number of demand (read+write) accesses
system.l2.demand_accesses::.cpu.data                6                       # number of demand (read+write) accesses
system.l2.demand_accesses::.switch_cpus.inst          326                       # number of demand (read+write) accesses
system.l2.demand_accesses::.switch_cpus.data        25418                       # number of demand (read+write) accesses
system.l2.demand_accesses::total                25752                       # number of demand (read+write) accesses
system.l2.overall_accesses::.cpu.inst               2                       # number of overall (read+write) accesses
system.l2.overall_accesses::.cpu.data               6                       # number of overall (read+write) accesses
system.l2.overall_accesses::.switch_cpus.inst          326                       # number of overall (read+write) accesses
system.l2.overall_accesses::.switch_cpus.data        25418                       # number of overall (read+write) accesses
system.l2.overall_accesses::total               25752                       # number of overall (read+write) accesses
system.l2.demand_miss_rate::.cpu.inst               1                       # miss rate for demand accesses
system.l2.demand_miss_rate::.cpu.data               1                       # miss rate for demand accesses
system.l2.demand_miss_rate::.switch_cpus.inst     0.463190                       # miss rate for demand accesses
system.l2.demand_miss_rate::.switch_cpus.data     0.300968                       # miss rate for demand accesses
system.l2.demand_miss_rate::total            0.303239                       # miss rate for demand accesses
system.l2.overall_miss_rate::.cpu.inst              1                       # miss rate for overall accesses
system.l2.overall_miss_rate::.cpu.data              1                       # miss rate for overall accesses
system.l2.overall_miss_rate::.switch_cpus.inst     0.463190                       # miss rate for overall accesses
system.l2.overall_miss_rate::.switch_cpus.data     0.300968                       # miss rate for overall accesses
system.l2.overall_miss_rate::total           0.303239                       # miss rate for overall accesses
system.l2.demand_avg_miss_latency::.switch_cpus.inst 81039.735099                       # average overall miss latency
system.l2.demand_avg_miss_latency::.switch_cpus.data 79056.993464                       # average overall miss latency
system.l2.demand_avg_miss_latency::total 79014.342425                       # average overall miss latency
system.l2.overall_avg_miss_latency::.switch_cpus.inst 81039.735099                       # average overall miss latency
system.l2.overall_avg_miss_latency::.switch_cpus.data 79056.993464                       # average overall miss latency
system.l2.overall_avg_miss_latency::total 79014.342425                       # average overall miss latency
system.l2.blocked_cycles::no_mshrs                  0                       # number of cycles access was blocked
system.l2.blocked_cycles::no_targets                0                       # number of cycles access was blocked
system.l2.blocked::no_mshrs                         0                       # number of cycles access was blocked
system.l2.blocked::no_targets                       0                       # number of cycles access was blocked
system.l2.avg_blocked_cycles::no_mshrs            nan                       # average number of cycles each access was blocked
system.l2.avg_blocked_cycles::no_targets          nan                       # average number of cycles each access was blocked
system.l2.writebacks::.writebacks                3908                       # number of writebacks
system.l2.writebacks::total                      3908                       # number of writebacks
system.l2.demand_mshr_misses::.switch_cpus.inst          151                       # number of demand (read+write) MSHR misses
system.l2.demand_mshr_misses::.switch_cpus.data         7650                       # number of demand (read+write) MSHR misses
system.l2.demand_mshr_misses::total              7801                       # number of demand (read+write) MSHR misses
system.l2.overall_mshr_misses::.switch_cpus.inst          151                       # number of overall MSHR misses
system.l2.overall_mshr_misses::.switch_cpus.data         7650                       # number of overall MSHR misses
system.l2.overall_mshr_misses::total             7801                       # number of overall MSHR misses
system.l2.demand_mshr_miss_latency::.switch_cpus.inst     10727000                       # number of demand (read+write) MSHR miss cycles
system.l2.demand_mshr_miss_latency::.switch_cpus.data    528286000                       # number of demand (read+write) MSHR miss cycles
system.l2.demand_mshr_miss_latency::total    539013000                       # number of demand (read+write) MSHR miss cycles
system.l2.overall_mshr_miss_latency::.switch_cpus.inst     10727000                       # number of overall MSHR miss cycles
system.l2.overall_mshr_miss_latency::.switch_cpus.data    528286000                       # number of overall MSHR miss cycles
system.l2.overall_mshr_miss_latency::total    539013000                       # number of overall MSHR miss cycles
system.l2.demand_mshr_miss_rate::.switch_cpus.inst     0.463190                       # mshr miss rate for demand accesses
system.l2.demand_mshr_miss_rate::.switch_cpus.data     0.300968                       # mshr miss rate for demand accesses
system.l2.demand_mshr_miss_rate::total       0.302928                       # mshr miss rate for demand accesses
system.l2.overall_mshr_miss_rate::.switch_cpus.inst     0.463190                       # mshr miss rate for overall accesses
system.l2.overall_mshr_miss_rate::.switch_cpus.data     0.300968                       # mshr miss rate for overall accesses
system.l2.overall_mshr_miss_rate::total      0.302928                       # mshr miss rate for overall accesses
system.l2.demand_avg_mshr_miss_latency::.switch_cpus.inst 71039.735099                       # average overall mshr miss latency
system.l2.demand_avg_mshr_miss_latency::.switch_cpus.data 69056.993464                       # average overall mshr miss latency
system.l2.demand_avg_mshr_miss_latency::total 69095.372388                       # average overall mshr miss latency
system.l2.overall_avg_mshr_miss_latency::.switch_cpus.inst 71039.735099                       # average overall mshr miss latency
system.l2.overall_avg_mshr_miss_latency::.switch_cpus.data 69056.993464                       # average overall mshr miss latency
system.l2.overall_avg_mshr_miss_latency::total 69095.372388                       # average overall mshr miss latency
system.l2.replacements                           8592                       # number of replacements
system.l2.WritebackDirty_hits::.writebacks        19572                       # number of WritebackDirty hits
system.l2.WritebackDirty_hits::total            19572                       # number of WritebackDirty hits
system.l2.WritebackDirty_accesses::.writebacks        19572                       # number of WritebackDirty accesses(hits+misses)
system.l2.WritebackDirty_accesses::total        19572                       # number of WritebackDirty accesses(hits+misses)
system.l2.WritebackClean_hits::.writebacks          200                       # number of WritebackClean hits
system.l2.WritebackClean_hits::total              200                       # number of WritebackClean hits
system.l2.WritebackClean_accesses::.writebacks          200                       # number of WritebackClean accesses(hits+misses)
system.l2.WritebackClean_accesses::total          200                       # number of WritebackClean accesses(hits+misses)
system.l2.CleanEvict_mshr_misses::.writebacks         1219                       # number of CleanEvict MSHR misses
system.l2.CleanEvict_mshr_misses::total          1219                       # number of CleanEvict MSHR misses
system.l2.CleanEvict_mshr_miss_rate::.writebacks          inf                       # mshr miss rate for CleanEvict accesses
system.l2.CleanEvict_mshr_miss_rate::total          inf                       # mshr miss rate for CleanEvict accesses
system.l2.ReadExReq_hits::.switch_cpus.data        14406                       # number of ReadExReq hits
system.l2.ReadExReq_hits::total                 14406                       # number of ReadExReq hits
system.l2.ReadExReq_misses::.cpu.data               2                       # number of ReadExReq misses
system.l2.ReadExReq_misses::.switch_cpus.data         5491                       # number of ReadExReq misses
system.l2.ReadExReq_misses::total                5493                       # number of ReadExReq misses
system.l2.ReadExReq_miss_latency::.switch_cpus.data    419662500                       # number of ReadExReq miss cycles
system.l2.ReadExReq_miss_latency::total     419662500                       # number of ReadExReq miss cycles
system.l2.ReadExReq_accesses::.cpu.data             2                       # number of ReadExReq accesses(hits+misses)
system.l2.ReadExReq_accesses::.switch_cpus.data        19897                       # number of ReadExReq accesses(hits+misses)
system.l2.ReadExReq_accesses::total             19899                       # number of ReadExReq accesses(hits+misses)
system.l2.ReadExReq_miss_rate::.cpu.data            1                       # miss rate for ReadExReq accesses
system.l2.ReadExReq_miss_rate::.switch_cpus.data     0.275971                       # miss rate for ReadExReq accesses
system.l2.ReadExReq_miss_rate::total         0.276044                       # miss rate for ReadExReq accesses
system.l2.ReadExReq_avg_miss_latency::.switch_cpus.data 76427.335640                       # average ReadExReq miss latency
system.l2.ReadExReq_avg_miss_latency::total 76399.508465                       # average ReadExReq miss latency
system.l2.ReadExReq_mshr_misses::.switch_cpus.data         5491                       # number of ReadExReq MSHR misses
system.l2.ReadExReq_mshr_misses::total           5491                       # number of ReadExReq MSHR misses
system.l2.ReadExReq_mshr_miss_latency::.switch_cpus.data    364752500                       # number of ReadExReq MSHR miss cycles
system.l2.ReadExReq_mshr_miss_latency::total    364752500                       # number of ReadExReq MSHR miss cycles
system.l2.ReadExReq_mshr_miss_rate::.switch_cpus.data     0.275971                       # mshr miss rate for ReadExReq accesses
system.l2.ReadExReq_mshr_miss_rate::total     0.275944                       # mshr miss rate for ReadExReq accesses
system.l2.ReadExReq_avg_mshr_miss_latency::.switch_cpus.data 66427.335640                       # average ReadExReq mshr miss latency
system.l2.ReadExReq_avg_mshr_miss_latency::total 66427.335640                       # average ReadExReq mshr miss latency
system.l2.ReadCleanReq_hits::.switch_cpus.inst          175                       # number of ReadCleanReq hits
system.l2.ReadCleanReq_hits::total                175                       # number of ReadCleanReq hits
system.l2.ReadCleanReq_misses::.cpu.inst            2                       # number of ReadCleanReq misses
system.l2.ReadCleanReq_misses::.switch_cpus.inst          151                       # number of ReadCleanReq misses
system.l2.ReadCleanReq_misses::total              153                       # number of ReadCleanReq misses
system.l2.ReadCleanReq_miss_latency::.switch_cpus.inst     12237000                       # number of ReadCleanReq miss cycles
system.l2.ReadCleanReq_miss_latency::total     12237000                       # number of ReadCleanReq miss cycles
system.l2.ReadCleanReq_accesses::.cpu.inst            2                       # number of ReadCleanReq accesses(hits+misses)
system.l2.ReadCleanReq_accesses::.switch_cpus.inst          326                       # number of ReadCleanReq accesses(hits+misses)
system.l2.ReadCleanReq_accesses::total            328                       # number of ReadCleanReq accesses(hits+misses)
system.l2.ReadCleanReq_miss_rate::.cpu.inst            1                       # miss rate for ReadCleanReq accesses
system.l2.ReadCleanReq_miss_rate::.switch_cpus.inst     0.463190                       # miss rate for ReadCleanReq accesses
[...]
system.cpu.dtb_walker_cache.pwrStateResidencyTicks::UNDEFINED 70901842034000                       # Cumulative time (in ticks) in various power states
system.cpu.dtb_walker_cache.blocked_cycles::no_mshrs            0                       # number of cycles access was blocked
system.cpu.dtb_walker_cache.blocked_cycles::no_targets            0                       # number of cycles access was blocked
system.cpu.dtb_walker_cache.blocked::no_mshrs            0                       # number of cycles access was blocked
system.cpu.dtb_walker_cache.blocked::no_targets            0                       # number of cycles access was blocked
system.cpu.dtb_walker_cache.avg_blocked_cycles::no_mshrs          nan                       # average number of cycles each access was blocked
system.cpu.dtb_walker_cache.avg_blocked_cycles::no_targets          nan                       # average number of cycles each access was blocked
system.cpu.dtb_walker_cache.replacements            0                       # number of replacements
system.cpu.dtb_walker_cache.tags.pwrStateResidencyTicks::UNDEFINED 70901842034000                       # Cumulative time (in ticks) in various power states
system.cpu.dtb_walker_cache.tags.tagsinuse            0                       # Cycle average of tags in use
system.cpu.dtb_walker_cache.tags.total_refs            0                       # Total number of references to valid blocks.
system.cpu.dtb_walker_cache.tags.sampled_refs            0                       # Sample count of references to valid blocks.
system.cpu.dtb_walker_cache.tags.avg_refs          nan                       # Average number of references to valid blocks.
system.cpu.dtb_walker_cache.tags.warmup_cycle            0                       # Cycle when the warmup percentage was hit.
system.cpu.dtb_walker_cache.tags.tag_accesses            0                       # Number of tag accesses
system.cpu.dtb_walker_cache.tags.data_accesses            0                       # Number of data accesses
system.cpu.dcache.pwrStateResidencyTicks::UNDEFINED 70901842034000                       # Cumulative time (in ticks) in various power states
system.cpu.dcache.demand_hits::.cpu.data            1                       # number of demand (read+write) hits
system.cpu.dcache.demand_hits::.switch_cpus.data     18886596                       # number of demand (read+write) hits
system.cpu.dcache.demand_hits::total         18886597                       # number of demand (read+write) hits
system.cpu.dcache.overall_hits::.cpu.data            1                       # number of overall hits
system.cpu.dcache.overall_hits::.switch_cpus.data     18932310                       # number of overall hits
system.cpu.dcache.overall_hits::total        18932311                       # number of overall hits
system.cpu.dcache.demand_misses::.cpu.data            6                       # number of demand (read+write) misses
system.cpu.dcache.demand_misses::.switch_cpus.data       108370                       # number of demand (read+write) misses
system.cpu.dcache.demand_misses::total         108376                       # number of demand (read+write) misses
system.cpu.dcache.overall_misses::.cpu.data            6                       # number of overall misses
system.cpu.dcache.overall_misses::.switch_cpus.data       114024                       # number of overall misses
system.cpu.dcache.overall_misses::total        114030                       # number of overall misses
system.cpu.dcache.demand_miss_latency::.switch_cpus.data   3566831498                       # number of demand (read+write) miss cycles
system.cpu.dcache.demand_miss_latency::total   3566831498                       # number of demand (read+write) miss cycles
system.cpu.dcache.overall_miss_latency::.switch_cpus.data   3566831498                       # number of overall miss cycles
system.cpu.dcache.overall_miss_latency::total   3566831498                       # number of overall miss cycles
system.cpu.dcache.demand_accesses::.cpu.data            7                       # number of demand (read+write) accesses
system.cpu.dcache.demand_accesses::.switch_cpus.data     18994966                       # number of demand (read+write) accesses
system.cpu.dcache.demand_accesses::total     18994973                       # number of demand (read+write) accesses
system.cpu.dcache.overall_accesses::.cpu.data            7                       # number of overall (read+write) accesses
system.cpu.dcache.overall_accesses::.switch_cpus.data     19046334                       # number of overall (read+write) accesses
system.cpu.dcache.overall_accesses::total     19046341                       # number of overall (read+write) accesses
system.cpu.dcache.demand_miss_rate::.cpu.data     0.857143                       # miss rate for demand accesses
system.cpu.dcache.demand_miss_rate::.switch_cpus.data     0.005705                       # miss rate for demand accesses
system.cpu.dcache.demand_miss_rate::total     0.005706                       # miss rate for demand accesses
system.cpu.dcache.overall_miss_rate::.cpu.data     0.857143                       # miss rate for overall accesses
system.cpu.dcache.overall_miss_rate::.switch_cpus.data     0.005987                       # miss rate for overall accesses
system.cpu.dcache.overall_miss_rate::total     0.005987                       # miss rate for overall accesses
system.cpu.dcache.demand_avg_miss_latency::.switch_cpus.data 32913.458503                       # average overall miss latency
system.cpu.dcache.demand_avg_miss_latency::total 32911.636322                       # average overall miss latency
system.cpu.dcache.overall_avg_miss_latency::.switch_cpus.data 31281.410036                       # average overall miss latency
system.cpu.dcache.overall_avg_miss_latency::total 31279.764080                       # average overall miss latency
system.cpu.dcache.blocked_cycles::no_mshrs        22204                       # number of cycles access was blocked
system.cpu.dcache.blocked_cycles::no_targets          362                       # number of cycles access was blocked
system.cpu.dcache.blocked::no_mshrs               912                       # number of cycles access was blocked
system.cpu.dcache.blocked::no_targets               7                       # number of cycles access was blocked
system.cpu.dcache.avg_blocked_cycles::no_mshrs    24.346491                       # average number of cycles each access was blocked
system.cpu.dcache.avg_blocked_cycles::no_targets    51.714286                       # average number of cycles each access was blocked
system.cpu.dcache.writebacks::.writebacks        83159                       # number of writebacks
system.cpu.dcache.writebacks::total             83159                       # number of writebacks
system.cpu.dcache.demand_mshr_hits::.switch_cpus.data         5400                       # number of demand (read+write) MSHR hits
system.cpu.dcache.demand_mshr_hits::total         5400                       # number of demand (read+write) MSHR hits
system.cpu.dcache.overall_mshr_hits::.switch_cpus.data         5400                       # number of overall MSHR hits
system.cpu.dcache.overall_mshr_hits::total         5400                       # number of overall MSHR hits
system.cpu.dcache.demand_mshr_misses::.switch_cpus.data       102970                       # number of demand (read+write) MSHR misses
system.cpu.dcache.demand_mshr_misses::total       102970                       # number of demand (read+write) MSHR misses
system.cpu.dcache.overall_mshr_misses::.switch_cpus.data       105043                       # number of overall MSHR misses
system.cpu.dcache.overall_mshr_misses::total       105043                       # number of overall MSHR misses
system.cpu.dcache.demand_mshr_miss_latency::.switch_cpus.data   3248148998                       # number of demand (read+write) MSHR miss cycles
system.cpu.dcache.demand_mshr_miss_latency::total   3248148998                       # number of demand (read+write) MSHR miss cycles
system.cpu.dcache.overall_mshr_miss_latency::.switch_cpus.data   3389149998                       # number of overall MSHR miss cycles
system.cpu.dcache.overall_mshr_miss_latency::total   3389149998                       # number of overall MSHR miss cycles
system.cpu.dcache.demand_mshr_miss_rate::.switch_cpus.data     0.005421                       # mshr miss rate for demand accesses
system.cpu.dcache.demand_mshr_miss_rate::total     0.005421                       # mshr miss rate for demand accesses
system.cpu.dcache.overall_mshr_miss_rate::.switch_cpus.data     0.005515                       # mshr miss rate for overall accesses
system.cpu.dcache.overall_mshr_miss_rate::total     0.005515                       # mshr miss rate for overall accesses
system.cpu.dcache.demand_avg_mshr_miss_latency::.switch_cpus.data 31544.614917                       # average overall mshr miss latency
system.cpu.dcache.demand_avg_mshr_miss_latency::total 31544.614917                       # average overall mshr miss latency
system.cpu.dcache.overall_avg_mshr_miss_latency::.switch_cpus.data 32264.405986                       # average overall mshr miss latency
system.cpu.dcache.overall_avg_mshr_miss_latency::total 32264.405986                       # average overall mshr miss latency
system.cpu.dcache.replacements                 104025                       # number of replacements
system.cpu.dcache.ReadReq_hits::.cpu.data            1                       # number of ReadReq hits
system.cpu.dcache.ReadReq_hits::.switch_cpus.data     13354812                       # number of ReadReq hits
system.cpu.dcache.ReadReq_hits::total        13354813                       # number of ReadReq hits
system.cpu.dcache.ReadReq_misses::.cpu.data            4                       # number of ReadReq misses
system.cpu.dcache.ReadReq_misses::.switch_cpus.data        27014                       # number of ReadReq misses
system.cpu.dcache.ReadReq_misses::total         27018                       # number of ReadReq misses
system.cpu.dcache.ReadReq_miss_latency::.switch_cpus.data   1077670500                       # number of ReadReq miss cycles
system.cpu.dcache.ReadReq_miss_latency::total   1077670500                       # number of ReadReq miss cycles
system.cpu.dcache.ReadReq_accesses::.cpu.data            5                       # number of ReadReq accesses(hits+misses)
system.cpu.dcache.ReadReq_accesses::.switch_cpus.data     13381826                       # number of ReadReq accesses(hits+misses)
system.cpu.dcache.ReadReq_accesses::total     13381831                       # number of ReadReq accesses(hits+misses)
system.cpu.dcache.ReadReq_miss_rate::.cpu.data     0.800000                       # miss rate for ReadReq accesses
system.cpu.dcache.ReadReq_miss_rate::.switch_cpus.data     0.002019                       # miss rate for ReadReq accesses
system.cpu.dcache.ReadReq_miss_rate::total     0.002019                       # miss rate for ReadReq accesses
system.cpu.dcache.ReadReq_avg_miss_latency::.switch_cpus.data 39893.036944                       # average ReadReq miss latency
system.cpu.dcache.ReadReq_avg_miss_latency::total 39887.130802                       # average ReadReq miss latency
system.cpu.dcache.ReadReq_mshr_hits::.switch_cpus.data         5376                       # number of ReadReq MSHR hits
system.cpu.dcache.ReadReq_mshr_hits::total         5376                       # number of ReadReq MSHR hits
system.cpu.dcache.ReadReq_mshr_misses::.switch_cpus.data        21638                       # number of ReadReq MSHR misses
system.cpu.dcache.ReadReq_mshr_misses::total        21638                       # number of ReadReq MSHR misses
system.cpu.dcache.ReadReq_mshr_miss_latency::.switch_cpus.data    840791500                       # number of ReadReq MSHR miss cycles
system.cpu.dcache.ReadReq_mshr_miss_latency::total    840791500                       # number of ReadReq MSHR miss cycles
system.cpu.dcache.ReadReq_mshr_miss_rate::.switch_cpus.data     0.001617                       # mshr miss rate for ReadReq accesses
system.cpu.dcache.ReadReq_mshr_miss_rate::total     0.001617                       # mshr miss rate for ReadReq accesses
system.cpu.dcache.ReadReq_avg_mshr_miss_latency::.switch_cpus.data 38857.172567                       # average ReadReq mshr miss latency
system.cpu.dcache.ReadReq_avg_mshr_miss_latency::total 38857.172567                       # average ReadReq mshr miss latency
system.cpu.dcache.WriteReq_hits::.switch_cpus.data      5531784                       # number of WriteReq hits
system.cpu.dcache.WriteReq_hits::total        5531784                       # number of WriteReq hits
system.cpu.dcache.WriteReq_misses::.cpu.data            2                       # number of WriteReq misses
system.cpu.dcache.WriteReq_misses::.switch_cpus.data        81356                       # number of WriteReq misses
system.cpu.dcache.WriteReq_misses::total        81358                       # number of WriteReq misses
system.cpu.dcache.WriteReq_miss_latency::.switch_cpus.data   2489160998                       # number of WriteReq miss cycles
system.cpu.dcache.WriteReq_miss_latency::total   2489160998                       # number of WriteReq miss cycles
system.cpu.dcache.WriteReq_accesses::.cpu.data            2                       # number of WriteReq accesses(hits+misses)
system.cpu.dcache.WriteReq_accesses::.switch_cpus.data      5613140                       # number of WriteReq accesses(hits+misses)
system.cpu.dcache.WriteReq_accesses::total      5613142                       # number of WriteReq accesses(hits+misses)
system.cpu.dcache.WriteReq_miss_rate::.cpu.data            1                       # miss rate for WriteReq accesses
system.cpu.dcache.WriteReq_miss_rate::.switch_cpus.data     0.014494                       # miss rate for WriteReq accesses
system.cpu.dcache.WriteReq_miss_rate::total     0.014494                       # miss rate for WriteReq accesses
system.cpu.dcache.WriteReq_avg_miss_latency::.switch_cpus.data 30595.911770                       # average WriteReq miss latency
system.cpu.dcache.WriteReq_avg_miss_latency::total 30595.159640                       # average WriteReq miss latency
system.cpu.dcache.WriteReq_mshr_hits::.switch_cpus.data           24                       # number of WriteReq MSHR hits
system.cpu.dcache.WriteReq_mshr_hits::total           24                       # number of WriteReq MSHR hits
system.cpu.dcache.WriteReq_mshr_misses::.switch_cpus.data        81332                       # number of WriteReq MSHR misses
system.cpu.dcache.WriteReq_mshr_misses::total        81332                       # number of WriteReq MSHR misses
system.cpu.dcache.WriteReq_mshr_miss_latency::.switch_cpus.data   2407357498                       # number of WriteReq MSHR miss cycles
system.cpu.dcache.WriteReq_mshr_miss_latency::total   2407357498                       # number of WriteReq MSHR miss cycles
system.cpu.dcache.WriteReq_mshr_miss_rate::.switch_cpus.data     0.014490                       # mshr miss rate for WriteReq accesses
system.cpu.dcache.WriteReq_mshr_miss_rate::total     0.014490                       # mshr miss rate for WriteReq accesses
system.cpu.dcache.WriteReq_avg_mshr_miss_latency::.switch_cpus.data 29599.142994                       # average WriteReq mshr miss latency
system.cpu.dcache.WriteReq_avg_mshr_miss_latency::total 29599.142994                       # average WriteReq mshr miss latency
system.cpu.dcache.SoftPFReq_hits::.switch_cpus.data        45714                       # number of SoftPFReq hits
system.cpu.dcache.SoftPFReq_hits::total         45714                       # number of SoftPFReq hits
system.cpu.dcache.SoftPFReq_misses::.switch_cpus.data         5654                       # number of SoftPFReq misses
system.cpu.dcache.SoftPFReq_misses::total         5654                       # number of SoftPFReq misses
system.cpu.dcache.SoftPFReq_accesses::.switch_cpus.data        51368                       # number of SoftPFReq accesses(hits+misses)
system.cpu.dcache.SoftPFReq_accesses::total        51368                       # number of SoftPFReq accesses(hits+misses)
system.cpu.dcache.SoftPFReq_miss_rate::.switch_cpus.data     0.110069                       # miss rate for SoftPFReq accesses
system.cpu.dcache.SoftPFReq_miss_rate::total     0.110069                       # miss rate for SoftPFReq accesses
system.cpu.dcache.SoftPFReq_mshr_misses::.switch_cpus.data         2073                       # number of SoftPFReq MSHR misses
system.cpu.dcache.SoftPFReq_mshr_misses::total         2073                       # number of SoftPFReq MSHR misses
system.cpu.dcache.SoftPFReq_mshr_miss_latency::.switch_cpus.data    141001000                       # number of SoftPFReq MSHR miss cycles
system.cpu.dcache.SoftPFReq_mshr_miss_latency::total    141001000                       # number of SoftPFReq MSHR miss cycles
system.cpu.dcache.SoftPFReq_mshr_miss_rate::.switch_cpus.data     0.040356                       # mshr miss rate for SoftPFReq accesses
system.cpu.dcache.SoftPFReq_mshr_miss_rate::total     0.040356                       # mshr miss rate for SoftPFReq accesses
system.cpu.dcache.SoftPFReq_avg_mshr_miss_latency::.switch_cpus.data 68017.848529                       # average SoftPFReq mshr miss latency
system.cpu.dcache.SoftPFReq_avg_mshr_miss_latency::total 68017.848529                       # average SoftPFReq mshr miss latency
system.cpu.dcache.tags.pwrStateResidencyTicks::UNDEFINED 70901842034000                       # Cumulative time (in ticks) in various power states
system.cpu.dcache.tags.tagsinuse             0.166821                       # Cycle average of tags in use
system.cpu.dcache.tags.total_refs            19037360                       # Total number of references to valid blocks.
system.cpu.dcache.tags.sampled_refs            105049                       # Sample count of references to valid blocks.
system.cpu.dcache.tags.avg_refs            181.223619                       # Average number of references to valid blocks.
system.cpu.dcache.tags.warmup_cycle      70890209278500                       # Cycle when the warmup percentage was hit.
system.cpu.dcache.tags.occ_blocks::.cpu.data     0.000431                       # Average occupied blocks per requestor
system.cpu.dcache.tags.occ_blocks::.switch_cpus.data     0.166390                       # Average occupied blocks per requestor
system.cpu.dcache.tags.occ_percent::.cpu.data     0.000000                       # Average percentage of cache occupancy
system.cpu.dcache.tags.occ_percent::.switch_cpus.data     0.000162                       # Average percentage of cache occupancy
system.cpu.dcache.tags.occ_percent::total     0.000163                       # Average percentage of cache occupancy
system.cpu.dcache.tags.occ_task_id_blocks::1024         1024                       # Occupied blocks per task id
system.cpu.dcache.tags.age_task_id_blocks_1024::0           10                       # Occupied blocks per task id
system.cpu.dcache.tags.age_task_id_blocks_1024::1          527                       # Occupied blocks per task id
system.cpu.dcache.tags.age_task_id_blocks_1024::2          447                       # Occupied blocks per task id
system.cpu.dcache.tags.age_task_id_blocks_1024::3           40                       # Occupied blocks per task id
system.cpu.dcache.tags.occ_task_id_percent::1024            1                       # Percentage of cache occupancy per task id
system.cpu.dcache.tags.tag_accesses          38197731                       # Number of tag accesses
system.cpu.dcache.tags.data_accesses         38197731                       # Number of data accesses

---------- End Simulation Statistics   ----------
