
---------- Begin Simulation Statistics ----------
final_tick                               164631144130500                       # Number of ticks from beginning of simulation (restored from checkpoints and never reset)
host_inst_rate                                  30790                       # Simulator instruction rate (inst/s)
host_mem_usage                                 828128                       # Number of bytes of host memory used
host_op_rate                                    53082                       # Simulator op (including micro ops) rate (op/s)
host_seconds                                   324.78                       # Real time elapsed on the host
host_tick_rate                               81647181                       # Simulator tick rate (ticks/s)
sim_freq                                 1000000000000                       # Frequency of simulated ticks
sim_insts                                    10000012                       # Number of instructions simulated
sim_ops                                      17240056                       # Number of ops (including micro ops) simulated
sim_seconds                                  0.026517                       # Number of seconds simulated
sim_ticks                                 26517486750                       # Number of ticks simulated
system.cpu.Branches                                 3                       # Number of branches fetched
system.cpu.committedInsts                          11                       # Number of instructions committed
system.cpu.committedOps                            21                       # Number of ops (including micro ops) committed
system.cpu.dtb.rdAccesses                           5                       # TLB accesses on read requests
system.cpu.dtb.rdMisses                             0                       # TLB misses on read requests
system.cpu.dtb.wrAccesses                           2                       # TLB accesses on write requests
system.cpu.dtb.wrMisses                             0                       # TLB misses on write requests
system.cpu.idle_fraction                            0                       # Percentage of idle cycles
system.cpu.itb.rdAccesses                           0                       # TLB accesses on read requests
system.cpu.itb.rdMisses                             0                       # TLB misses on read requests
system.cpu.itb.wrAccesses                          11                       # TLB accesses on write requests
system.cpu.itb.wrMisses                             0                       # TLB misses on write requests
system.cpu.not_idle_fraction                        1                       # Percentage of non-idle cycles
system.cpu.numCycles                               21                       # number of cpu cycles simulated
system.cpu.numWorkItemsCompleted                    0                       # number of work items this cpu completed
system.cpu.numWorkItemsStarted                      0                       # number of work items this cpu started
system.cpu.num_busy_cycles                         21                       # Number of busy cycles
system.cpu.num_cc_register_reads                   15                       # number of times the CC registers were read
system.cpu.num_cc_register_writes                  10                       # number of times the CC registers were written
system.cpu.num_conditional_control_insts            3                       # number of instructions that are conditional controls
system.cpu.num_fp_alu_accesses                      0                       # Number of float alu accesses
system.cpu.num_fp_insts                             0                       # number of float instructions
system.cpu.num_fp_register_reads                    0                       # number of times the floating registers were read
system.cpu.num_fp_register_writes                   0                       # number of times the floating registers were written
system.cpu.num_func_calls                           0                       # number of times a function call or return occured
system.cpu.num_idle_cycles                          0                       # Number of idle cycles
system.cpu.num_int_alu_accesses                    21                       # Number of integer alu accesses
system.cpu.num_int_insts                           21                       # number of integer instructions
system.cpu.num_int_register_reads                  45                       # number of times the integer registers were read
system.cpu.num_int_register_writes                 16                       # number of times the integer registers were written
system.cpu.num_load_insts                           5                       # Number of load instructions
system.cpu.num_mem_refs                             7                       # number of memory refs
system.cpu.num_store_insts                          2                       # Number of store instructions
system.cpu.num_vec_alu_accesses                     0                       # Number of vector alu accesses
system.cpu.num_vec_insts                            0                       # number of vector instructions
system.cpu.num_vec_register_reads                   0                       # number of times the vector registers were read
system.cpu.num_vec_register_writes                  0                       # number of times the vector registers were written
system.cpu.op_class::No_OpClass                     0      0.00%      0.00% # Class of executed instruction
system.cpu.op_class::IntAlu                        14     66.67%     66.67% # Class of executed instruction
system.cpu.op_class::IntMult                        0      0.00%     66.67% # Class of executed instruction
system.cpu.op_class::IntDiv                         0      0.00%     66.67% # Class of executed instruction
system.cpu.op_class::FloatAdd                       0      0.00%     66.67% # Class of executed instruction
system.cpu.op_class::FloatCmp                       0      0.00%     66.67% # Class of executed instruction
system.cpu.op_class::FloatCvt                       0      0.00%     66.67% # Class of executed instruction
system.cpu.op_class::FloatMult                      0      0.00%     66.67% # Class of executed instruction
system.cpu.op_class::FloatMultAcc                   0      0.00%     66.67% # Class of executed instruction
system.cpu.op_class::FloatDiv                       0      0.00%     66.67% # Class of executed instruction
system.cpu.op_class::FloatMisc                      0      0.00%     66.67% # Class of executed instruction
system.cpu.op_class::FloatSqrt                      0      0.00%     66.67% # Class of executed instruction
system.cpu.op_class::SimdAdd                        0      0.00%     66.67% # Class of executed instruction
system.cpu.op_class::SimdAddAcc                     0      0.00%     66.67% # Class of executed instruction
system.cpu.op_class::SimdAlu                        0      0.00%     66.67% # Class of executed instruction
system.cpu.op_class::SimdCmp                        0      0.00%     66.67% # Class of executed instruction
system.cpu.op_class::SimdCvt                        0      0.00%     66.67% # Class of executed instruction
system.cpu.op_class::SimdMisc                       0      0.00%     66.67% # Class of executed instruction
system.cpu.op_class::SimdMult                       0      0.00%     66.67% # Class of executed instruction
system.cpu.op_class::SimdMultAcc                    0      0.00%     66.67% # Class of executed instruction
system.cpu.op_class::SimdShift                      0      0.00%     66.67% # Class of executed instruction
system.cpu.op_class::SimdShiftAcc                   0      0.00%     66.67% # Class of executed instruction
system.cpu.op_class::SimdDiv                        0      0.00%     66.67% # Class of executed instruction
system.cpu.op_class::SimdSqrt                       0      0.00%     66.67% # Class of executed instruction
system.cpu.op_class::SimdFloatAdd                   0      0.00%     66.67% # Class of executed instruction
system.cpu.op_class::SimdFloatAlu                   0      0.00%     66.67% # Class of executed instruction
system.cpu.op_class::SimdFloatCmp                   0      0.00%     66.67% # Class of executed instruction
system.cpu.op_class::SimdFloatCvt                   0      0.00%     66.67% # Class of executed instruction
system.cpu.op_class::SimdFloatDiv                   0      0.00%     66.67% # Class of executed instruction
system.cpu.op_class::SimdFloatMisc                  0      0.00%     66.67% # Class of executed instruction
system.cpu.op_class::SimdFloatMult                  0      0.00%     66.67% # Class of executed instruction
system.cpu.op_class::SimdFloatMultAcc               0      0.00%     66.67% # Class of executed instruction
system.cpu.op_class::SimdFloatSqrt                  0      0.00%     66.67% # Class of executed instruction
system.cpu.op_class::SimdReduceAdd                  0      0.00%     66.67% # Class of executed instruction
system.cpu.op_class::SimdReduceAlu                  0      0.00%     66.67% # Class of executed instruction
system.cpu.op_class::SimdReduceCmp                  0      0.00%     66.67% # Class of executed instruction
system.cpu.op_class::SimdFloatReduceAdd             0      0.00%     66.67% # Class of executed instruction
system.cpu.op_class::SimdFloatReduceCmp             0      0.00%     66.67% # Class of executed instruction
system.cpu.op_class::SimdAes                        0      0.00%     66.67% # Class of executed instruction
system.cpu.op_class::SimdAesMix                     0      0.00%     66.67% # Class of executed instruction
system.cpu.op_class::SimdSha1Hash                   0      0.00%     66.67% # Class of executed instruction
system.cpu.op_class::SimdSha1Hash2                  0      0.00%     66.67% # Class of executed instruction
system.cpu.op_class::SimdSha256Hash                 0      0.00%     66.67% # Class of executed instruction
system.cpu.op_class::SimdSha256Hash2                0      0.00%     66.67% # Class of executed instruction
system.cpu.op_class::SimdShaSigma2                  0      0.00%     66.67% # Class of executed instruction
system.cpu.op_class::SimdShaSigma3                  0      0.00%     66.67% # Class of executed instruction
system.cpu.op_class::SimdPredAlu                    0      0.00%     66.67% # Class of executed instruction
system.cpu.op_class::MemRead                        5     23.81%     90.48% # Class of executed instruction
system.cpu.op_class::MemWrite                       2      9.52%    100.00% # Class of executed instruction
system.cpu.op_class::FloatMemRead                   0      0.00%    100.00% # Class of executed instruction
system.cpu.op_class::FloatMemWrite                  0      0.00%    100.00% # Class of executed instruction
system.cpu.op_class::IprAccess                      0      0.00%    100.00% # Class of executed instruction
system.cpu.op_class::InstPrefetch                   0      0.00%    100.00% # Class of executed instruction
system.cpu.op_class::total                         21                       # Class of executed instruction
system.cpu.workload.numSyscalls                     0                       # Number of system calls
system.l2.prefetcher.num_hwpf_issued               53                       # number of hwpf issued
system.l2.prefetcher.pfBufferHit                    0                       # number of redundant prefetches already in prefetch queue
system.l2.prefetcher.pfIdentified                  53                       # number of prefetch candidates identified
system.l2.prefetcher.pfInCache                      0                       # number of redundant prefetches already in cache/mshr dropped
system.l2.prefetcher.pfRemovedFull                  0                       # number of prefetches dropped due to prefetch queue size
system.l2.prefetcher.pfSpanPage                851511                       # number of prefetches that crossed the page
system.membus.snoop_filter.hit_multi_requests            0                       # Number of requests hitting in the snoop filter with multiple (>1) holders of the requested data.
system.membus.snoop_filter.hit_multi_snoops            0                       # Number of snoops hitting in the snoop filter with multiple (>1) holders of the requested data.
system.membus.snoop_filter.hit_single_requests       590728                       # Number of requests hitting in the snoop filter with a single holder of the requested data.
system.membus.snoop_filter.hit_single_snoops            0                       # Number of snoops hitting in the snoop filter with a single holder of the requested data.
system.membus.snoop_filter.tot_requests       1185629                       # Total number of requests made to the snoop filter.
system.membus.snoop_filter.tot_snoops               0                       # Total number of snoops made to the snoop filter.
system.switch_cpus.branchPred.BTBCorrect            0                       # Number of correct BTB predictions (this stat may not work properly.
system.switch_cpus.branchPred.BTBHitPct      0.000000                       # BTB Hit Percentage
system.switch_cpus.branchPred.BTBHits               0                       # Number of BTB hits
system.switch_cpus.branchPred.BTBLookups      6528457                       # Number of BTB lookups
system.switch_cpus.branchPred.RASInCorrect            1                       # Number of incorrect RAS predictions.
system.switch_cpus.branchPred.condIncorrect       562084                       # Number of conditional branches incorrect
system.switch_cpus.branchPred.condPredicted      7026889                       # Number of conditional branches predicted
system.switch_cpus.branchPred.indirectHits      2732995                       # Number of indirect target hits.
system.switch_cpus.branchPred.indirectLookups      6528457                       # Number of indirect predictor lookups.
system.switch_cpus.branchPred.indirectMisses      3795462                       # Number of indirect misses.
system.switch_cpus.branchPred.lookups         7182814                       # Number of BP lookups
system.switch_cpus.branchPred.usedRAS           83840                       # Number of times the RAS was used to get a target.
system.switch_cpus.branchPredindirectMispredicted       383342                       # Number of mispredicted indirect branches.
system.switch_cpus.cc_regfile_reads          17688838                       # number of cc regfile reads
system.switch_cpus.cc_regfile_writes         11437125                       # number of cc regfile writes
system.switch_cpus.commit.amos                      0                       # Number of atomic instructions committed
system.switch_cpus.commit.branchMispredicts       562106                       # The number of times a branch was mispredicted
system.switch_cpus.commit.branches            2476523                       # Number of branches committed
system.switch_cpus.commit.bw_lim_events       1025755                       # number cycles where commit BW limit reached
system.switch_cpus.commit.commitSquashedInsts     19513026                       # The number of squashed insts skipped by commit
system.switch_cpus.commit.committedInsts     10000001                       # Number of instructions committed
system.switch_cpus.commit.committedOps       17240035                       # Number of ops (including micro ops) committed
system.switch_cpus.commit.committed_per_cycle::samples     49984107                       # Number of insts commited each cycle
system.switch_cpus.commit.committed_per_cycle::mean     0.344910                       # Number of insts commited each cycle
system.switch_cpus.commit.committed_per_cycle::stdev     1.345698                       # Number of insts commited each cycle
system.switch_cpus.commit.committed_per_cycle::underflows            0      0.00%      0.00% # Number of insts commited each cycle
system.switch_cpus.commit.committed_per_cycle::0     45216758     90.46%     90.46% # Number of insts commited each cycle
system.switch_cpus.commit.committed_per_cycle::1      1641386      3.28%     93.75% # Number of insts commited each cycle
system.switch_cpus.commit.committed_per_cycle::2       360616      0.72%     94.47% # Number of insts commited each cycle
system.switch_cpus.commit.committed_per_cycle::3       930510      1.86%     96.33% # Number of insts commited each cycle
system.switch_cpus.commit.committed_per_cycle::4       405481      0.81%     97.14% # Number of insts commited each cycle
system.switch_cpus.commit.committed_per_cycle::5       233223      0.47%     97.61% # Number of insts commited each cycle
system.switch_cpus.commit.committed_per_cycle::6       100838      0.20%     97.81% # Number of insts commited each cycle
system.switch_cpus.commit.committed_per_cycle::7        69540      0.14%     97.95% # Number of insts commited each cycle
system.switch_cpus.commit.committed_per_cycle::8      1025755      2.05%    100.00% # Number of insts commited each cycle
system.switch_cpus.commit.committed_per_cycle::overflows            0      0.00%    100.00% # Number of insts commited each cycle
system.switch_cpus.commit.committed_per_cycle::min_value            0                       # Number of insts commited each cycle
system.switch_cpus.commit.committed_per_cycle::max_value            8                       # Number of insts commited each cycle
system.switch_cpus.commit.committed_per_cycle::total     49984107                       # Number of insts commited each cycle
system.switch_cpus.commit.fp_insts                  0                       # Number of committed floating point instructions.
system.switch_cpus.commit.function_calls         5900                       # Number of function calls committed.
system.switch_cpus.commit.int_insts          17177963                       # Number of committed integer instructions.
system.switch_cpus.commit.loads               3454881                       # Number of loads committed
system.switch_cpus.commit.membars                   0                       # Number of memory barriers committed
system.switch_cpus.commit.op_class_0::No_OpClass        56255      0.33%      0.33% # Class of committed instruction
system.switch_cpus.commit.op_class_0::IntAlu     13093978     75.95%     76.28% # Class of committed instruction
system.switch_cpus.commit.op_class_0::IntMult          808      0.00%     76.28% # Class of committed instruction
system.switch_cpus.commit.op_class_0::IntDiv            0      0.00%     76.28% # Class of committed instruction
system.switch_cpus.commit.op_class_0::FloatAdd            0      0.00%     76.28% # Class of committed instruction
system.switch_cpus.commit.op_class_0::FloatCmp            0      0.00%     76.28% # Class of committed instruction
system.switch_cpus.commit.op_class_0::FloatCvt            0      0.00%     76.28% # Class of committed instruction
system.switch_cpus.commit.op_class_0::FloatMult            0      0.00%     76.28% # Class of committed instruction
system.switch_cpus.commit.op_class_0::FloatMultAcc            0      0.00%     76.28% # Class of committed instruction
system.switch_cpus.commit.op_class_0::FloatDiv            0      0.00%     76.28% # Class of committed instruction
system.switch_cpus.commit.op_class_0::FloatMisc            0      0.00%     76.28% # Class of committed instruction
system.switch_cpus.commit.op_class_0::FloatSqrt            0      0.00%     76.28% # Class of committed instruction
system.switch_cpus.commit.op_class_0::SimdAdd            0      0.00%     76.28% # Class of committed instruction
system.switch_cpus.commit.op_class_0::SimdAddAcc            0      0.00%     76.28% # Class of committed instruction
system.switch_cpus.commit.op_class_0::SimdAlu            0      0.00%     76.28% # Class of committed instruction
system.switch_cpus.commit.op_class_0::SimdCmp            0      0.00%     76.28% # Class of committed instruction
system.switch_cpus.commit.op_class_0::SimdCvt            0      0.00%     76.28% # Class of committed instruction
system.switch_cpus.commit.op_class_0::SimdMisc            0      0.00%     76.28% # Class of committed instruction
system.switch_cpus.commit.op_class_0::SimdMult            0      0.00%     76.28% # Class of committed instruction
system.switch_cpus.commit.op_class_0::SimdMultAcc            0      0.00%     76.28% # Class of committed instruction
system.switch_cpus.commit.op_class_0::SimdShift            0      0.00%     76.28% # Class of committed instruction
system.switch_cpus.commit.op_class_0::SimdShiftAcc            0      0.00%     76.28% # Class of committed instruction
system.switch_cpus.commit.op_class_0::SimdDiv            0      0.00%     76.28% # Class of committed instruction
system.switch_cpus.commit.op_class_0::SimdSqrt            0      0.00%     76.28% # Class of committed instruction
system.switch_cpus.commit.op_class_0::SimdFloatAdd            0      0.00%     76.28% # Class of committed instruction
system.switch_cpus.commit.op_class_0::SimdFloatAlu            0      0.00%     76.28% # Class of committed instruction
system.switch_cpus.commit.op_class_0::SimdFloatCmp            0      0.00%     76.28% # Class of committed instruction
system.switch_cpus.commit.op_class_0::SimdFloatCvt            0      0.00%     76.28% # Class of committed instruction
system.switch_cpus.commit.op_class_0::SimdFloatDiv            0      0.00%     76.28% # Class of committed instruction
system.switch_cpus.commit.op_class_0::SimdFloatMisc            0      0.00%     76.28% # Class of committed instruction
system.switch_cpus.commit.op_class_0::SimdFloatMult            0      0.00%     76.28% # Class of committed instruction
system.switch_cpus.commit.op_class_0::SimdFloatMultAcc            0      0.00%     76.28% # Class of committed instruction
system.switch_cpus.commit.op_class_0::SimdFloatSqrt            0      0.00%     76.28% # Class of committed instruction
system.switch_cpus.commit.op_class_0::SimdReduceAdd            0      0.00%     76.28% # Class of committed instruction
system.switch_cpus.commit.op_class_0::SimdReduceAlu            0      0.00%     76.28% # Class of committed instruction
system.switch_cpus.commit.op_class_0::SimdReduceCmp            0      0.00%     76.28% # Class of committed instruction
system.switch_cpus.commit.op_class_0::SimdFloatReduceAdd            0      0.00%     76.28% # Class of committed instruction
system.switch_cpus.commit.op_class_0::SimdFloatReduceCmp            0      0.00%     76.28% # Class of committed instruction
system.switch_cpus.commit.op_class_0::SimdAes            0      0.00%     76.28% # Class of committed instruction
system.switch_cpus.commit.op_class_0::SimdAesMix            0      0.00%     76.28% # Class of committed instruction
system.switch_cpus.commit.op_class_0::SimdSha1Hash            0      0.00%     76.28% # Class of committed instruction
system.switch_cpus.commit.op_class_0::SimdSha1Hash2            0      0.00%     76.28% # Class of committed instruction
system.switch_cpus.commit.op_class_0::SimdSha256Hash            0      0.00%     76.28% # Class of committed instruction
system.switch_cpus.commit.op_class_0::SimdSha256Hash2            0      0.00%     76.28% # Class of committed instruction
system.switch_cpus.commit.op_class_0::SimdShaSigma2            0      0.00%     76.28% # Class of committed instruction
system.switch_cpus.commit.op_class_0::SimdShaSigma3            0      0.00%     76.28% # Class of committed instruction
system.switch_cpus.commit.op_class_0::SimdPredAlu            0      0.00%     76.28% # Class of committed instruction
system.switch_cpus.commit.op_class_0::MemRead      3454881     20.04%     96.32% # Class of committed instruction
system.switch_cpus.commit.op_class_0::MemWrite       634113      3.68%    100.00% # Class of committed instruction
system.switch_cpus.commit.op_class_0::FloatMemRead            0      0.00%    100.00% # Class of committed instruction
system.switch_cpus.commit.op_class_0::FloatMemWrite            0      0.00%    100.00% # Class of committed instruction
system.switch_cpus.commit.op_class_0::IprAccess            0      0.00%    100.00% # Class of committed instruction
system.switch_cpus.commit.op_class_0::InstPrefetch            0      0.00%    100.00% # Class of committed instruction
system.switch_cpus.commit.op_class_0::total     17240035                       # Class of committed instruction
system.switch_cpus.commit.refs                4088994                       # Number of memory references committed
system.switch_cpus.commit.swp_count                 0                       # Number of s/w prefetches committed
system.switch_cpus.commit.vec_insts                 0                       # Number of committed Vector instructions.
system.switch_cpus.committedInsts            10000001                       # Number of Instructions Simulated
system.switch_cpus.committedOps              17240035                       # Number of Ops (including micro ops) Simulated
system.switch_cpus.cpi                       5.303495                       # CPI: Cycles Per Instruction
system.switch_cpus.cpi_total                 5.303495                       # CPI: Total CPI of All Threads
system.switch_cpus.decode.BlockedCycles      43813066                       # Number of cycles decode is blocked
system.switch_cpus.decode.DecodedInsts       44355115                       # Number of instructions handled by decode
system.switch_cpus.decode.IdleCycles          2398764                       # Number of cycles decode is idle
system.switch_cpus.decode.RunCycles           4805532                       # Number of cycles decode is running
system.switch_cpus.decode.SquashCycles         562690                       # Number of cycles decode is squashing
system.switch_cpus.decode.UnblockCycles       1450888                       # Number of cycles decode is unblocking
system.switch_cpus.dtb.rdAccesses             5351005                       # TLB accesses on read requests
system.switch_cpus.dtb.rdMisses                786699                       # TLB misses on read requests
system.switch_cpus.dtb.wrAccesses              974558                       # TLB accesses on write requests
system.switch_cpus.dtb.wrMisses                 25432                       # TLB misses on write requests
system.switch_cpus.fetch.Branches             7182814                       # Number of branches that fetch encountered
system.switch_cpus.fetch.CacheLines           2471921                       # Number of cache lines fetched
system.switch_cpus.fetch.Cycles              49704013                       # Number of cycles fetch has run and was not squashing or blocked
system.switch_cpus.fetch.IcacheSquashes        121144                       # Number of outstanding Icache misses that were squashed
system.switch_cpus.fetch.Insts               29556351                       # Number of instructions fetch has processed
system.switch_cpus.fetch.MiscStallCycles           22                       # Number of cycles fetch has spent waiting on interrupts, or bad addresses, or out of MSHRs
system.switch_cpus.fetch.PendingTrapStallCycles          135                       # Number of stall cycles due to pending traps
system.switch_cpus.fetch.SquashCycles         1125380                       # Number of cycles fetch has spent squashing
system.switch_cpus.fetch.branchRate          0.135435                       # Number of branch fetches per cycle
system.switch_cpus.fetch.icacheStallCycles      2764086                       # Number of cycles fetch is stalled on an Icache miss
system.switch_cpus.fetch.predictedBranches      2816835                       # Number of branches that fetch has predicted taken
system.switch_cpus.fetch.rate                0.557299                       # Number of inst fetches per cycle
system.switch_cpus.fetch.rateDist::samples     53030946                       # Number of instructions fetched each cycle (Total)
system.switch_cpus.fetch.rateDist::mean      0.965033                       # Number of instructions fetched each cycle (Total)
system.switch_cpus.fetch.rateDist::stdev     2.404422                       # Number of instructions fetched each cycle (Total)
system.switch_cpus.fetch.rateDist::underflows            0      0.00%      0.00% # Number of instructions fetched each cycle (Total)
system.switch_cpus.fetch.rateDist::0         44577619     84.06%     84.06% # Number of instructions fetched each cycle (Total)
system.switch_cpus.fetch.rateDist::1           392440      0.74%     84.80% # Number of instructions fetched each cycle (Total)
system.switch_cpus.fetch.rateDist::2           580580      1.09%     85.89% # Number of instructions fetched each cycle (Total)
system.switch_cpus.fetch.rateDist::3           541951      1.02%     86.92% # Number of instructions fetched each cycle (Total)
system.switch_cpus.fetch.rateDist::4           865119      1.63%     88.55% # Number of instructions fetched each cycle (Total)
system.switch_cpus.fetch.rateDist::5           974151      1.84%     90.38% # Number of instructions fetched each cycle (Total)
system.switch_cpus.fetch.rateDist::6           372093      0.70%     91.09% # Number of instructions fetched each cycle (Total)
system.switch_cpus.fetch.rateDist::7           382599      0.72%     91.81% # Number of instructions fetched each cycle (Total)
system.switch_cpus.fetch.rateDist::8          4344394      8.19%    100.00% # Number of instructions fetched each cycle (Total)
system.switch_cpus.fetch.rateDist::overflows            0      0.00%    100.00% # Number of instructions fetched each cycle (Total)
system.switch_cpus.fetch.rateDist::min_value            0                       # Number of instructions fetched each cycle (Total)
system.switch_cpus.fetch.rateDist::max_value            8                       # Number of instructions fetched each cycle (Total)
system.switch_cpus.fetch.rateDist::total     53030946                       # Number of instructions fetched each cycle (Total)
system.switch_cpus.fp_regfile_writes               56                       # number of floating regfile writes
system.switch_cpus.idleCycles                    4006                       # Total number of cycles that the CPU has spent unscheduled due to idling
system.switch_cpus.iew.branchMispredicts       737549                       # Number of branch mispredicts detected at execute
system.switch_cpus.iew.exec_branches          3753855                       # Number of branches executed
system.switch_cpus.iew.exec_nop                     0                       # number of nop insts executed
system.switch_cpus.iew.exec_rate             0.667310                       # Inst execution rate
system.switch_cpus.iew.exec_refs             11896271                       # number of memory reference insts executed
system.switch_cpus.iew.exec_stores             974466                       # Number of stores executed
system.switch_cpus.iew.exec_swp                     0                       # number of swp insts executed
system.switch_cpus.iew.iewBlockCycles        21808549                       # Number of cycles IEW is blocking
system.switch_cpus.iew.iewDispLoadInsts       6701212                       # Number of dispatched load instructions
system.switch_cpus.iew.iewDispNonSpecInsts            0                       # Number of dispatched non-speculative instructions
system.switch_cpus.iew.iewDispSquashedInsts        75106                       # Number of squashed instructions skipped by dispatch
system.switch_cpus.iew.iewDispStoreInsts      1461093                       # Number of dispatched store instructions
system.switch_cpus.iew.iewDispatchedInsts     36734628                       # Number of instructions dispatched to IQ
system.switch_cpus.iew.iewExecLoadInsts      10921805                       # Number of load instructions executed
system.switch_cpus.iew.iewExecSquashedInsts      1272974                       # Number of squashed instructions skipped in execute
system.switch_cpus.iew.iewExecutedInsts      35390730                       # Number of executed instructions
system.switch_cpus.iew.iewIQFullEvents         229407                       # Number of times the IQ has become full, causing a stall
system.switch_cpus.iew.iewIdleCycles                0                       # Number of cycles IEW is idle
system.switch_cpus.iew.iewLSQFullEvents       3958911                       # Number of times the LSQ has become full, causing a stall
system.switch_cpus.iew.iewSquashCycles         562690                       # Number of cycles IEW is squashing
system.switch_cpus.iew.iewUnblockCycles       4338734                       # Number of cycles IEW is unblocking
system.switch_cpus.iew.lsq.thread0.blockedLoads            0                       # Number of blocked loads due to partial load-store forwarding
system.switch_cpus.iew.lsq.thread0.cacheBlocked       597761                       # Number of times an access to memory failed due to the cache being blocked
system.switch_cpus.iew.lsq.thread0.forwLoads       115460                       # Number of loads that had data forwarded from stores
system.switch_cpus.iew.lsq.thread0.ignoredResponses          856                       # Number of memory responses ignored because the instruction is squashed
system.switch_cpus.iew.lsq.thread0.invAddrLoads            0                       # Number of loads ignored due to an invalid address
system.switch_cpus.iew.lsq.thread0.invAddrSwpfs            0                       # Number of software prefetches ignored due to an invalid address
system.switch_cpus.iew.lsq.thread0.memOrderViolation         1247                       # Number of memory ordering violations
system.switch_cpus.iew.lsq.thread0.rescheduledLoads            0                       # Number of loads that were rescheduled
system.switch_cpus.iew.lsq.thread0.squashedLoads      3246331                       # Number of loads squashed
system.switch_cpus.iew.lsq.thread0.squashedStores       826980                       # Number of stores squashed
system.switch_cpus.iew.memOrderViolationEvents         1247                       # Number of memory order violations
system.switch_cpus.iew.predictedNotTakenIncorrect       586175                       # Number of branches that were predicted not taken incorrectly
system.switch_cpus.iew.predictedTakenIncorrect       151374                       # Number of branches that were predicted taken incorrectly
system.switch_cpus.iew.wb_consumers          30618633                       # num instructions consuming a value
system.switch_cpus.iew.wb_count              28779473                       # cumulative count of insts written-back
system.switch_cpus.iew.wb_fanout             0.685339                       # average fanout of values written-back
system.switch_cpus.iew.wb_producers          20984138                       # num instructions producing a value
system.switch_cpus.iew.wb_rate               0.542651                       # insts written-back per cycle
system.switch_cpus.iew.wb_sent               28926446                       # cumulative count of insts sent to commit
system.switch_cpus.int_regfile_reads         48484966                       # number of integer regfile reads
system.switch_cpus.int_regfile_writes        23824886                       # number of integer regfile writes
system.switch_cpus.ipc                       0.188555                       # IPC: Instructions Per Cycle
system.switch_cpus.ipc_total                 0.188555                       # IPC: Total IPC of All Threads
system.switch_cpus.iq.FU_type_0::No_OpClass       338100      0.92%      0.92% # Type of FU issued
system.switch_cpus.iq.FU_type_0::IntAlu      24111528     65.76%     66.69% # Type of FU issued
system.switch_cpus.iq.FU_type_0::IntMult         1050      0.00%     66.69% # Type of FU issued
system.switch_cpus.iq.FU_type_0::IntDiv             0      0.00%     66.69% # Type of FU issued
system.switch_cpus.iq.FU_type_0::FloatAdd            0      0.00%     66.69% # Type of FU issued
system.switch_cpus.iq.FU_type_0::FloatCmp            0      0.00%     66.69% # Type of FU issued
system.switch_cpus.iq.FU_type_0::FloatCvt            0      0.00%     66.69% # Type of FU issued
system.switch_cpus.iq.FU_type_0::FloatMult            0      0.00%     66.69% # Type of FU issued
system.switch_cpus.iq.FU_type_0::FloatMultAcc            0      0.00%     66.69% # Type of FU issued
system.switch_cpus.iq.FU_type_0::FloatDiv            0      0.00%     66.69% # Type of FU issued
system.switch_cpus.iq.FU_type_0::FloatMisc            0      0.00%     66.69% # Type of FU issued
system.switch_cpus.iq.FU_type_0::FloatSqrt            0      0.00%     66.69% # Type of FU issued
system.switch_cpus.iq.FU_type_0::SimdAdd            0      0.00%     66.69% # Type of FU issued
system.switch_cpus.iq.FU_type_0::SimdAddAcc            0      0.00%     66.69% # Type of FU issued
system.switch_cpus.iq.FU_type_0::SimdAlu            0      0.00%     66.69% # Type of FU issued
system.switch_cpus.iq.FU_type_0::SimdCmp            0      0.00%     66.69% # Type of FU issued
system.switch_cpus.iq.FU_type_0::SimdCvt            0      0.00%     66.69% # Type of FU issued
system.switch_cpus.iq.FU_type_0::SimdMisc            0      0.00%     66.69% # Type of FU issued
system.switch_cpus.iq.FU_type_0::SimdMult            0      0.00%     66.69% # Type of FU issued
system.switch_cpus.iq.FU_type_0::SimdMultAcc            0      0.00%     66.69% # Type of FU issued
system.switch_cpus.iq.FU_type_0::SimdShift            0      0.00%     66.69% # Type of FU issued
system.switch_cpus.iq.FU_type_0::SimdShiftAcc            0      0.00%     66.69% # Type of FU issued
system.switch_cpus.iq.FU_type_0::SimdDiv            0      0.00%     66.69% # Type of FU issued
system.switch_cpus.iq.FU_type_0::SimdSqrt            0      0.00%     66.69% # Type of FU issued
system.switch_cpus.iq.FU_type_0::SimdFloatAdd            0      0.00%     66.69% # Type of FU issued
system.switch_cpus.iq.FU_type_0::SimdFloatAlu            0      0.00%     66.69% # Type of FU issued
system.switch_cpus.iq.FU_type_0::SimdFloatCmp            0      0.00%     66.69% # Type of FU issued
system.switch_cpus.iq.FU_type_0::SimdFloatCvt            0      0.00%     66.69% # Type of FU issued
system.switch_cpus.iq.FU_type_0::SimdFloatDiv            0      0.00%     66.69% # Type of FU issued
system.switch_cpus.iq.FU_type_0::SimdFloatMisc            0      0.00%     66.69% # Type of FU issued
system.switch_cpus.iq.FU_type_0::SimdFloatMult            0      0.00%     66.69% # Type of FU issued
system.switch_cpus.iq.FU_type_0::SimdFloatMultAcc            0      0.00%     66.69% # Type of FU issued
system.switch_cpus.iq.FU_type_0::SimdFloatSqrt            0      0.00%     66.69% # Type of FU issued
system.switch_cpus.iq.FU_type_0::SimdReduceAdd            0      0.00%     66.69% # Type of FU issued
system.switch_cpus.iq.FU_type_0::SimdReduceAlu            0      0.00%     66.69% # Type of FU issued
system.switch_cpus.iq.FU_type_0::SimdReduceCmp            0      0.00%     66.69% # Type of FU issued
system.switch_cpus.iq.FU_type_0::SimdFloatReduceAdd            0      0.00%     66.69% # Type of FU issued
system.switch_cpus.iq.FU_type_0::SimdFloatReduceCmp            0      0.00%     66.69% # Type of FU issued
system.switch_cpus.iq.FU_type_0::SimdAes            0      0.00%     66.69% # Type of FU issued
system.switch_cpus.iq.FU_type_0::SimdAesMix            0      0.00%     66.69% # Type of FU issued
system.switch_cpus.iq.FU_type_0::SimdSha1Hash            0      0.00%     66.69% # Type of FU issued
system.switch_cpus.iq.FU_type_0::SimdSha1Hash2            0      0.00%     66.69% # Type of FU issued
system.switch_cpus.iq.FU_type_0::SimdSha256Hash            0      0.00%     66.69% # Type of FU issued
system.switch_cpus.iq.FU_type_0::SimdSha256Hash2            0      0.00%     66.69% # Type of FU issued
system.switch_cpus.iq.FU_type_0::SimdShaSigma2            0      0.00%     66.69% # Type of FU issued
system.switch_cpus.iq.FU_type_0::SimdShaSigma3            0      0.00%     66.69% # Type of FU issued
system.switch_cpus.iq.FU_type_0::SimdPredAlu            0      0.00%     66.69% # Type of FU issued
system.switch_cpus.iq.FU_type_0::MemRead     11171020     30.47%     97.16% # Type of FU issued
system.switch_cpus.iq.FU_type_0::MemWrite      1042006      2.84%    100.00% # Type of FU issued
system.switch_cpus.iq.FU_type_0::FloatMemRead            0      0.00%    100.00% # Type of FU issued
system.switch_cpus.iq.FU_type_0::FloatMemWrite            0      0.00%    100.00% # Type of FU issued
system.switch_cpus.iq.FU_type_0::IprAccess            0      0.00%    100.00% # Type of FU issued
system.switch_cpus.iq.FU_type_0::InstPrefetch            0      0.00%    100.00% # Type of FU issued
system.switch_cpus.iq.FU_type_0::total       36663704                       # Type of FU issued
system.switch_cpus.iq.fp_alu_accesses               0                       # Number of floating point alu accesses
system.switch_cpus.iq.fp_inst_queue_reads            0                       # Number of floating instruction queue reads
system.switch_cpus.iq.fp_inst_queue_wakeup_accesses            0                       # Number of floating instruction queue wakeup accesses
system.switch_cpus.iq.fp_inst_queue_writes            0                       # Number of floating instruction queue writes
system.switch_cpus.iq.fu_busy_cnt             1433843                       # FU busy when requested
system.switch_cpus.iq.fu_busy_rate           0.039108                       # FU busy rate (busy events/executed inst)
system.switch_cpus.iq.fu_full::No_OpClass            0      0.00%      0.00% # attempts to use FU when none available
system.switch_cpus.iq.fu_full::IntAlu          289115     20.16%     20.16% # attempts to use FU when none available
system.switch_cpus.iq.fu_full::IntMult              0      0.00%     20.16% # attempts to use FU when none available
system.switch_cpus.iq.fu_full::IntDiv               0      0.00%     20.16% # attempts to use FU when none available
system.switch_cpus.iq.fu_full::FloatAdd             0      0.00%     20.16% # attempts to use FU when none available
system.switch_cpus.iq.fu_full::FloatCmp             0      0.00%     20.16% # attempts to use FU when none available
system.switch_cpus.iq.fu_full::FloatCvt             0      0.00%     20.16% # attempts to use FU when none available
system.switch_cpus.iq.fu_full::FloatMult            0      0.00%     20.16% # attempts to use FU when none available
system.switch_cpus.iq.fu_full::FloatMultAcc            0      0.00%     20.16% # attempts to use FU when none available
system.switch_cpus.iq.fu_full::FloatDiv             0      0.00%     20.16% # attempts to use FU when none available
system.switch_cpus.iq.fu_full::FloatMisc            0      0.00%     20.16% # attempts to use FU when none available
system.switch_cpus.iq.fu_full::FloatSqrt            0      0.00%     20.16% # attempts to use FU when none available
system.switch_cpus.iq.fu_full::SimdAdd              0      0.00%     20.16% # attempts to use FU when none available
system.switch_cpus.iq.fu_full::SimdAddAcc            0      0.00%     20.16% # attempts to use FU when none available
system.switch_cpus.iq.fu_full::SimdAlu              0      0.00%     20.16% # attempts to use FU when none available
system.switch_cpus.iq.fu_full::SimdCmp              0      0.00%     20.16% # attempts to use FU when none available
system.switch_cpus.iq.fu_full::SimdCvt              0      0.00%     20.16% # attempts to use FU when none available
system.switch_cpus.iq.fu_full::SimdMisc             0      0.00%     20.16% # attempts to use FU when none available
system.switch_cpus.iq.fu_full::SimdMult             0      0.00%     20.16% # attempts to use FU when none available
system.switch_cpus.iq.fu_full::SimdMultAcc            0      0.00%     20.16% # attempts to use FU when none available
system.switch_cpus.iq.fu_full::SimdShift            0      0.00%     20.16% # attempts to use FU when none available
system.switch_cpus.iq.fu_full::SimdShiftAcc            0      0.00%     20.16% # attempts to use FU when none available
system.switch_cpus.iq.fu_full::SimdDiv              0      0.00%     20.16% # attempts to use FU when none available
system.switch_cpus.iq.fu_full::SimdSqrt             0      0.00%     20.16% # attempts to use FU when none available
system.switch_cpus.iq.fu_full::SimdFloatAdd            0      0.00%     20.16% # attempts to use FU when none available
system.switch_cpus.iq.fu_full::SimdFloatAlu            0      0.00%     20.16% # attempts to use FU when none available
system.switch_cpus.iq.fu_full::SimdFloatCmp            0      0.00%     20.16% # attempts to use FU when none available
system.switch_cpus.iq.fu_full::SimdFloatCvt            0      0.00%     20.16% # attempts to use FU when none available
system.switch_cpus.iq.fu_full::SimdFloatDiv            0      0.00%     20.16% # attempts to use FU when none available
system.switch_cpus.iq.fu_full::SimdFloatMisc            0      0.00%     20.16% # attempts to use FU when none available
system.switch_cpus.iq.fu_full::SimdFloatMult            0      0.00%     20.16% # attempts to use FU when none available
system.switch_cpus.iq.fu_full::SimdFloatMultAcc            0      0.00%     20.16% # attempts to use FU when none available
system.switch_cpus.iq.fu_full::SimdFloatSqrt            0      0.00%     20.16% # attempts to use FU when none available
system.switch_cpus.iq.fu_full::SimdReduceAdd            0      0.00%     20.16% # attempts to use FU when none available
system.switch_cpus.iq.fu_full::SimdReduceAlu            0      0.00%     20.16% # attempts to use FU when none available
system.switch_cpus.iq.fu_full::SimdReduceCmp            0      0.00%     20.16% # attempts to use FU when none available
system.switch_cpus.iq.fu_full::SimdFloatReduceAdd            0      0.00%     20.16% # attempts to use FU when none available
system.switch_cpus.iq.fu_full::SimdFloatReduceCmp            0      0.00%     20.16% # attempts to use FU when none available
system.switch_cpus.iq.fu_full::SimdAes              0      0.00%     20.16% # attempts to use FU when none available
system.switch_cpus.iq.fu_full::SimdAesMix            0      0.00%     20.16% # attempts to use FU when none available
system.switch_cpus.iq.fu_full::SimdSha1Hash            0      0.00%     20.16% # attempts to use FU when none available
system.switch_cpus.iq.fu_full::SimdSha1Hash2            0      0.00%     20.16% # attempts to use FU when none available
system.switch_cpus.iq.fu_full::SimdSha256Hash            0      0.00%     20.16% # attempts to use FU when none available
system.switch_cpus.iq.fu_full::SimdSha256Hash2            0      0.00%     20.16% # attempts to use FU when none available
system.switch_cpus.iq.fu_full::SimdShaSigma2            0      0.00%     20.16% # attempts to use FU when none available
system.switch_cpus.iq.fu_full::SimdShaSigma3            0      0.00%     20.16% # attempts to use FU when none available
system.switch_cpus.iq.fu_full::SimdPredAlu            0      0.00%     20.16% # attempts to use FU when none available
system.switch_cpus.iq.fu_full::MemRead        1103176     76.94%     97.10% # attempts to use FU when none available
system.switch_cpus.iq.fu_full::MemWrite         41552      2.90%    100.00% # attempts to use FU when none available
system.switch_cpus.iq.fu_full::FloatMemRead            0      0.00%    100.00% # attempts to use FU when none available
system.switch_cpus.iq.fu_full::FloatMemWrite            0      0.00%    100.00% # attempts to use FU when none available
system.switch_cpus.iq.fu_full::IprAccess            0      0.00%    100.00% # attempts to use FU when none available
system.switch_cpus.iq.fu_full::InstPrefetch            0      0.00%    100.00% # attempts to use FU when none available
system.switch_cpus.iq.int_alu_accesses       37759447                       # Number of integer alu accesses
system.switch_cpus.iq.int_inst_queue_reads    128234656                       # Number of integer instruction queue reads
system.switch_cpus.iq.int_inst_queue_wakeup_accesses     28779473                       # Number of integer instruction queue wakeup accesses
system.switch_cpus.iq.int_inst_queue_writes     56229985                       # Number of integer instruction queue writes
system.switch_cpus.iq.iqInstsAdded           36734628                       # Number of instructions added to the IQ (excludes non-spec)
system.switch_cpus.iq.iqInstsIssued          36663704                       # Number of instructions issued
system.switch_cpus.iq.iqSquashedInstsExamined     19494593                       # Number of squashed instructions iterated over during squash; mainly for profiling
system.switch_cpus.iq.iqSquashedInstsIssued       442459                       # Number of squashed instructions issued
system.switch_cpus.iq.iqSquashedOperandsExamined     26636492                       # Number of squashed operands that are examined and possibly removed from graph
system.switch_cpus.iq.issued_per_cycle::samples     53030946                       # Number of insts issued each cycle
system.switch_cpus.iq.issued_per_cycle::mean     0.691364                       # Number of insts issued each cycle
system.switch_cpus.iq.issued_per_cycle::stdev     1.625211                       # Number of insts issued each cycle
system.switch_cpus.iq.issued_per_cycle::underflows            0      0.00%      0.00% # Number of insts issued each cycle
system.switch_cpus.iq.issued_per_cycle::0     41795780     78.81%     78.81% # Number of insts issued each cycle
system.switch_cpus.iq.issued_per_cycle::1      3177557      5.99%     84.81% # Number of insts issued each cycle
system.switch_cpus.iq.issued_per_cycle::2      1657915      3.13%     87.93% # Number of insts issued each cycle
system.switch_cpus.iq.issued_per_cycle::3      1517974      2.86%     90.79% # Number of insts issued each cycle
system.switch_cpus.iq.issued_per_cycle::4      1799268      3.39%     94.19% # Number of insts issued each cycle
system.switch_cpus.iq.issued_per_cycle::5      1240375      2.34%     96.53% # Number of insts issued each cycle
system.switch_cpus.iq.issued_per_cycle::6      1022605      1.93%     98.45% # Number of insts issued each cycle
system.switch_cpus.iq.issued_per_cycle::7       473958      0.89%     99.35% # Number of insts issued each cycle
system.switch_cpus.iq.issued_per_cycle::8       345514      0.65%    100.00% # Number of insts issued each cycle
system.switch_cpus.iq.issued_per_cycle::overflows            0      0.00%    100.00% # Number of insts issued each cycle
system.switch_cpus.iq.issued_per_cycle::min_value            0                       # Number of insts issued each cycle
system.switch_cpus.iq.issued_per_cycle::max_value            8                       # Number of insts issued each cycle
system.switch_cpus.iq.issued_per_cycle::total     53030946                       # Number of insts issued each cycle
system.switch_cpus.iq.rate                   0.691312                       # Inst issue rate
system.switch_cpus.iq.vec_alu_accesses              0                       # Number of vector alu accesses
system.switch_cpus.iq.vec_inst_queue_reads            0                       # Number of vector instruction queue reads
system.switch_cpus.iq.vec_inst_queue_wakeup_accesses            0                       # Number of vector instruction queue wakeup accesses
system.switch_cpus.iq.vec_inst_queue_writes            0                       # Number of vector instruction queue writes
system.switch_cpus.itb.rdAccesses                   0                       # TLB accesses on read requests
system.switch_cpus.itb.rdMisses                     0                       # TLB misses on read requests
system.switch_cpus.itb.wrAccesses             2471944                       # TLB accesses on write requests
system.switch_cpus.itb.wrMisses                    26                       # TLB misses on write requests
system.switch_cpus.memDep0.conflictingLoads       465709                       # Number of conflicting loads.
system.switch_cpus.memDep0.conflictingStores       524710                       # Number of conflicting stores.
system.switch_cpus.memDep0.insertedLoads      6701212                       # Number of loads inserted to the mem dependence unit.
system.switch_cpus.memDep0.insertedStores      1461093                       # Number of stores inserted to the mem dependence unit.
system.switch_cpus.misc_regfile_reads        20717880                       # number of misc regfile reads
system.switch_cpus.misc_regfile_writes              1                       # number of misc regfile writes
system.switch_cpus.numCycles                 53034952                       # number of cpu cycles simulated
system.switch_cpus.numWorkItemsCompleted            0                       # number of work items this cpu completed
system.switch_cpus.numWorkItemsStarted              0                       # number of work items this cpu started
system.switch_cpus.rename.BlockCycles        32221481                       # Number of cycles rename is blocking
system.switch_cpus.rename.CommittedMaps      21411880                       # Number of HB maps that are committed
system.switch_cpus.rename.IQFullEvents        4577662                       # Number of times rename has blocked due to IQ full
system.switch_cpus.rename.IdleCycles          3077189                       # Number of cycles rename is idle
system.switch_cpus.rename.LQFullEvents        9147418                       # Number of times rename has blocked due to LQ full
system.switch_cpus.rename.ROBFullEvents        240404                       # Number of times rename has blocked due to ROB full
system.switch_cpus.rename.RenameLookups     106807530                       # Number of register rename lookups that rename has made
system.switch_cpus.rename.RenamedInsts       41574855                       # Number of instructions processed by rename
system.switch_cpus.rename.RenamedOperands     50639370                       # Number of destination operands rename has renamed
system.switch_cpus.rename.RunCycles           5284873                       # Number of cycles rename is running
system.switch_cpus.rename.SQFullEvents         129449                       # Number of times rename has blocked due to SQ full
system.switch_cpus.rename.SquashCycles         562690                       # Number of cycles rename is squashing
system.switch_cpus.rename.UnblockCycles      11880466                       # Number of cycles rename is unblocking
system.switch_cpus.rename.UndoneMaps         29227487                       # Number of HB maps that are undone due to squashing
system.switch_cpus.rename.int_rename_lookups     57314777                       # Number of integer rename lookups
system.switch_cpus.rename.serializeStallCycles         4241                       # count of cycles rename stalled for serializing inst
system.switch_cpus.rename.serializingInsts         6835                       # count of serializing insts renamed
system.switch_cpus.rename.skidInsts           7472738                       # count of insts added to the skid buffer
system.switch_cpus.rename.tempSerializingInsts         6799                       # count of temporary serializing insts renamed
system.switch_cpus.rob.rob_reads             85711413                       # The number of ROB reads
system.switch_cpus.rob.rob_writes            76587324                       # The number of ROB writes
system.switch_cpus.timesIdled                      47                       # Number of times that the entire CPU went into an idle state and unscheduled itself
system.tol2bus.snoop_filter.hit_multi_requests            0                       # Number of requests hitting in the snoop filter with multiple (>1) holders of the requested data.
system.tol2bus.snoop_filter.hit_multi_snoops            0                       # Number of snoops hitting in the snoop filter with multiple (>1) holders of the requested data.
system.tol2bus.snoop_filter.hit_single_requests       956162                       # Number of requests hitting in the snoop filter with a single holder of the requested data.
system.tol2bus.snoop_filter.hit_single_snoops        28272                       # Number of snoops hitting in the snoop filter with a single holder of the requested data.
system.tol2bus.snoop_filter.tot_requests      1913410                       # Total number of requests made to the snoop filter.
system.tol2bus.snoop_filter.tot_snoops          28272                       # Total number of snoops made to the snoop filter.
system.membus.pwrStateResidencyTicks::UNDEFINED 164631144130500                       # Cumulative time (in ticks) in various power states
system.membus.trans_dist::ReadResp             587491                       # Transaction distribution
system.membus.trans_dist::WritebackDirty        83599                       # Transaction distribution
system.membus.trans_dist::CleanEvict           507129                       # Transaction distribution
system.membus.trans_dist::ReadExReq              7410                       # Transaction distribution
system.membus.trans_dist::ReadExResp             7410                       # Transaction distribution
system.membus.trans_dist::ReadSharedReq        587491                       # Transaction distribution
system.membus.pkt_count_system.l2.mem_side::system.mem_ctrls.port      1780530                       # Packet count per connected master and slave (bytes)
system.membus.pkt_count_system.l2.mem_side::total      1780530                       # Packet count per connected master and slave (bytes)
system.membus.pkt_count::total                1780530                       # Packet count per connected master and slave (bytes)
system.membus.pkt_size_system.l2.mem_side::system.mem_ctrls.port     43424000                       # Cumulative packet size per connected master and slave (bytes)
system.membus.pkt_size_system.l2.mem_side::total     43424000                       # Cumulative packet size per connected master and slave (bytes)
system.membus.pkt_size::total                43424000                       # Cumulative packet size per connected master and slave (bytes)
system.membus.snoops                                0                       # Total snoops (count)
system.membus.snoopTraffic                          0                       # Total snoop traffic (bytes)
system.membus.snoop_fanout::samples            594901                       # Request fanout histogram
system.membus.snoop_fanout::mean                    0                       # Request fanout histogram
system.membus.snoop_fanout::stdev                   0                       # Request fanout histogram
system.membus.snoop_fanout::underflows              0      0.00%      0.00% # Request fanout histogram
system.membus.snoop_fanout::0                  594901    100.00%    100.00% # Request fanout histogram
system.membus.snoop_fanout::1                       0      0.00%    100.00% # Request fanout histogram
system.membus.snoop_fanout::overflows               0      0.00%    100.00% # Request fanout histogram
system.membus.snoop_fanout::min_value               0                       # Request fanout histogram
system.membus.snoop_fanout::max_value               0                       # Request fanout histogram
system.membus.snoop_fanout::total              594901                       # Request fanout histogram
system.membus.reqLayer2.occupancy          1632144499                       # Layer occupancy (ticks)
system.membus.reqLayer2.utilization               6.2                       # Layer utilization (%)
system.membus.respLayer1.occupancy         3299923001                       # Layer occupancy (ticks)
system.membus.respLayer1.utilization             12.4                       # Layer utilization (%)
system.switch_cpus.pwrStateResidencyTicks::OFF  26517486750                       # Cumulative time (in ticks) in various power states
system.switch_cpus.dtb.walker.pwrStateResidencyTicks::UNDEFINED 164631144130500                       # Cumulative time (in ticks) in various power states
system.switch_cpus.itb.walker.pwrStateResidencyTicks::UNDEFINED 164631144130500                       # Cumulative time (in ticks) in various power states
system.tol2bus.pwrStateResidencyTicks::UNDEFINED 164631144130500                       # Cumulative time (in ticks) in various power states
system.tol2bus.trans_dist::ReadResp            936398                       # Transaction distribution
system.tol2bus.trans_dist::WritebackDirty       259719                       # Transaction distribution
system.tol2bus.trans_dist::CleanEvict         1296176                       # Transaction distribution
system.tol2bus.trans_dist::HardPFReq               88                       # Transaction distribution
system.tol2bus.trans_dist::ReadExReq            20850                       # Transaction distribution
system.tol2bus.trans_dist::ReadExResp           20850                       # Transaction distribution
system.tol2bus.trans_dist::ReadCleanReq            62                       # Transaction distribution
system.tol2bus.trans_dist::ReadSharedReq       936336                       # Transaction distribution
system.tol2bus.pkt_count_system.cpu.icache.mem_side::system.l2.cpu_side          124                       # Packet count per connected master and slave (bytes)
system.tol2bus.pkt_count_system.cpu.dcache.mem_side::system.l2.cpu_side      2870534                       # Packet count per connected master and slave (bytes)
system.tol2bus.pkt_count::total               2870658                       # Packet count per connected master and slave (bytes)
system.tol2bus.pkt_size_system.cpu.icache.mem_side::system.l2.cpu_side         3968                       # Cumulative packet size per connected master and slave (bytes)
system.tol2bus.pkt_size_system.cpu.dcache.mem_side::system.l2.cpu_side     72531584                       # Cumulative packet size per connected master and slave (bytes)
system.tol2bus.pkt_size::total               72535552                       # Cumulative packet size per connected master and slave (bytes)
system.tol2bus.snoops                          599821                       # Total snoops (count)
system.tol2bus.snoopTraffic                   5350336                       # Total snoop traffic (bytes)
system.tol2bus.snoop_fanout::samples          1557069                       # Request fanout histogram
system.tol2bus.snoop_fanout::mean            0.018157                       # Request fanout histogram
system.tol2bus.snoop_fanout::stdev           0.133520                       # Request fanout histogram
system.tol2bus.snoop_fanout::underflows             0      0.00%      0.00% # Request fanout histogram
system.tol2bus.snoop_fanout::0                1528797     98.18%     98.18% # Request fanout histogram
system.tol2bus.snoop_fanout::1                  28272      1.82%    100.00% # Request fanout histogram
system.tol2bus.snoop_fanout::2                      0      0.00%    100.00% # Request fanout histogram
system.tol2bus.snoop_fanout::3                      0      0.00%    100.00% # Request fanout histogram
system.tol2bus.snoop_fanout::4                      0      0.00%    100.00% # Request fanout histogram
system.tol2bus.snoop_fanout::overflows              0      0.00%    100.00% # Request fanout histogram
system.tol2bus.snoop_fanout::min_value              0                       # Request fanout histogram
system.tol2bus.snoop_fanout::max_value              1                       # Request fanout histogram
system.tol2bus.snoop_fanout::total            1557069                       # Request fanout histogram
system.tol2bus.reqLayer0.occupancy         1132822000                       # Layer occupancy (ticks)
system.tol2bus.reqLayer0.utilization              4.3                       # Layer utilization (%)
system.tol2bus.respLayer1.occupancy        1435771500                       # Layer occupancy (ticks)
system.tol2bus.respLayer1.utilization             5.4                       # Layer utilization (%)
system.tol2bus.respLayer0.occupancy             91999                       # Layer occupancy (ticks)
system.tol2bus.respLayer0.utilization             0.0                       # Layer utilization (%)
system.voltage_domain.voltage                       1                       # Voltage in Volts
system.clk_domain.clock                          1000                       # Clock period in ticks
system.l2.pwrStateResidencyTicks::UNDEFINED 164631144130500                       # Cumulative time (in ticks) in various power states
system.l2.demand_hits::.switch_cpus.data       362397                       # number of demand (read+write) hits
system.l2.demand_hits::total                   362397                       # number of demand (read+write) hits
system.l2.overall_hits::.switch_cpus.data       362397                       # number of overall hits
system.l2.overall_hits::total                  362397                       # number of overall hits
system.l2.demand_misses::.cpu.inst                  1                       # number of demand (read+write) misses
system.l2.demand_misses::.cpu.data                  5                       # number of demand (read+write) misses
system.l2.demand_misses::.switch_cpus.inst           61                       # number of demand (read+write) misses
system.l2.demand_misses::.switch_cpus.data       594784                       # number of demand (read+write) misses
system.l2.demand_misses::total                 594851                       # number of demand (read+write) misses
system.l2.overall_misses::.cpu.inst                 1                       # number of overall misses
system.l2.overall_misses::.cpu.data                 5                       # number of overall misses
system.l2.overall_misses::.switch_cpus.inst           61                       # number of overall misses
system.l2.overall_misses::.switch_cpus.data       594784                       # number of overall misses
system.l2.overall_misses::total                594851                       # number of overall misses
system.l2.demand_miss_latency::.switch_cpus.inst      5263000                       # number of demand (read+write) miss cycles
system.l2.demand_miss_latency::.switch_cpus.data  59811271000                       # number of demand (read+write) miss cycles
system.l2.demand_miss_latency::total      59816534000                       # number of demand (read+write) miss cycles
system.l2.overall_miss_latency::.switch_cpus.inst      5263000                       # number of overall miss cycles
system.l2.overall_miss_latency::.switch_cpus.data  59811271000                       # number of overall miss cycles
system.l2.overall_miss_latency::total     59816534000                       # number of overall miss cycles
system.l2.demand_accesses::.cpu.inst                1                       # number of demand (read+write) accesses
system.l2.demand_accesses::.cpu.data                5                       # number of demand (read+write) accesses
system.l2.demand_accesses::.switch_cpus.inst           61                       # number of demand (read+write) accesses
system.l2.demand_accesses::.switch_cpus.data       957181                       # number of demand (read+write) accesses
system.l2.demand_accesses::total               957248                       # number of demand (read+write) accesses
system.l2.overall_accesses::.cpu.inst               1                       # number of overall (read+write) accesses
system.l2.overall_accesses::.cpu.data               5                       # number of overall (read+write) accesses
system.l2.overall_accesses::.switch_cpus.inst           61                       # number of overall (read+write) accesses
system.l2.overall_accesses::.switch_cpus.data       957181                       # number of overall (read+write) accesses
system.l2.overall_accesses::total              957248                       # number of overall (read+write) accesses
system.l2.demand_miss_rate::.cpu.inst               1                       # miss rate for demand accesses
system.l2.demand_miss_rate::.cpu.data               1                       # miss rate for demand accesses
system.l2.demand_miss_rate::.switch_cpus.inst            1                       # miss rate for demand accesses
system.l2.demand_miss_rate::.switch_cpus.data     0.621391                       # miss rate for demand accesses
system.l2.demand_miss_rate::total            0.621418                       # miss rate for demand accesses
system.l2.overall_miss_rate::.cpu.inst              1                       # miss rate for overall accesses
system.l2.overall_miss_rate::.cpu.data              1                       # miss rate for overall accesses
system.l2.overall_miss_rate::.switch_cpus.inst            1                       # miss rate for overall accesses
system.l2.overall_miss_rate::.switch_cpus.data     0.621391                       # miss rate for overall accesses
system.l2.overall_miss_rate::total           0.621418                       # miss rate for overall accesses
system.l2.demand_avg_miss_latency::.switch_cpus.inst 86278.688525                       # average overall miss latency
system.l2.demand_avg_miss_latency::.switch_cpus.data 100559.650226                       # average overall miss latency
system.l2.demand_avg_miss_latency::total 100557.171460                       # average overall miss latency
system.l2.overall_avg_miss_latency::.switch_cpus.inst 86278.688525                       # average overall miss latency
system.l2.overall_avg_miss_latency::.switch_cpus.data 100559.650226                       # average overall miss latency
system.l2.overall_avg_miss_latency::total 100557.171460                       # average overall miss latency
system.l2.blocked_cycles::no_mshrs                  0                       # number of cycles access was blocked
system.l2.blocked_cycles::no_targets                0                       # number of cycles access was blocked
system.l2.blocked::no_mshrs                         0                       # number of cycles access was blocked
system.l2.blocked::no_targets                       0                       # number of cycles access was blocked
system.l2.avg_blocked_cycles::no_mshrs            nan                       # average number of cycles each access was blocked
system.l2.avg_blocked_cycles::no_targets          nan                       # average number of cycles each access was blocked
system.l2.unused_prefetches                        17                       # number of HardPF blocks evicted w/o reference
system.l2.writebacks::.writebacks               83599                       # number of writebacks
system.l2.writebacks::total                     83599                       # number of writebacks
system.l2.demand_mshr_misses::.switch_cpus.inst           61                       # number of demand (read+write) MSHR misses
system.l2.demand_mshr_misses::.switch_cpus.data       594784                       # number of demand (read+write) MSHR misses
system.l2.demand_mshr_misses::total            594845                       # number of demand (read+write) MSHR misses
system.l2.overall_mshr_misses::.l2.prefetcher           50                       # number of overall MSHR misses
system.l2.overall_mshr_misses::.switch_cpus.inst           61                       # number of overall MSHR misses
system.l2.overall_mshr_misses::.switch_cpus.data       594784                       # number of overall MSHR misses
system.l2.overall_mshr_misses::total           594895                       # number of overall MSHR misses
system.l2.demand_mshr_miss_latency::.switch_cpus.inst      4653000                       # number of demand (read+write) MSHR miss cycles
system.l2.demand_mshr_miss_latency::.switch_cpus.data  53863431000                       # number of demand (read+write) MSHR miss cycles
system.l2.demand_mshr_miss_latency::total  53868084000                       # number of demand (read+write) MSHR miss cycles
system.l2.overall_mshr_miss_latency::.l2.prefetcher      4098962                       # number of overall MSHR miss cycles
system.l2.overall_mshr_miss_latency::.switch_cpus.inst      4653000                       # number of overall MSHR miss cycles
system.l2.overall_mshr_miss_latency::.switch_cpus.data  53863431000                       # number of overall MSHR miss cycles
system.l2.overall_mshr_miss_latency::total  53872182962                       # number of overall MSHR miss cycles
system.l2.demand_mshr_miss_rate::.switch_cpus.inst            1                       # mshr miss rate for demand accesses
system.l2.demand_mshr_miss_rate::.switch_cpus.data     0.621391                       # mshr miss rate for demand accesses
system.l2.demand_mshr_miss_rate::total       0.621412                       # mshr miss rate for demand accesses
system.l2.overall_mshr_miss_rate::.l2.prefetcher          inf                       # mshr miss rate for overall accesses
system.l2.overall_mshr_miss_rate::.switch_cpus.inst            1                       # mshr miss rate for overall accesses
system.l2.overall_mshr_miss_rate::.switch_cpus.data     0.621391                       # mshr miss rate for overall accesses
system.l2.overall_mshr_miss_rate::total      0.621464                       # mshr miss rate for overall accesses
system.l2.demand_avg_mshr_miss_latency::.switch_cpus.inst 76278.688525                       # average overall mshr miss latency
system.l2.demand_avg_mshr_miss_latency::.switch_cpus.data 90559.650226                       # average overall mshr miss latency
system.l2.demand_avg_mshr_miss_latency::total 90558.185746                       # average overall mshr miss latency
system.l2.overall_avg_mshr_miss_latency::.l2.prefetcher 81979.240000                       # average overall mshr miss latency
system.l2.overall_avg_mshr_miss_latency::.switch_cpus.inst 76278.688525                       # average overall mshr miss latency
system.l2.overall_avg_mshr_miss_latency::.switch_cpus.data 90559.650226                       # average overall mshr miss latency
system.l2.overall_avg_mshr_miss_latency::total 90557.464699                       # average overall mshr miss latency
system.l2.replacements                         599733                       # number of replacements
system.l2.WritebackDirty_hits::.writebacks       176120                       # number of WritebackDirty hits
system.l2.WritebackDirty_hits::total           176120                       # number of WritebackDirty hits
system.l2.WritebackDirty_accesses::.writebacks       176120                       # number of WritebackDirty accesses(hits+misses)
system.l2.WritebackDirty_accesses::total       176120                       # number of WritebackDirty accesses(hits+misses)
system.l2.CleanEvict_mshr_misses::.writebacks        19267                       # number of CleanEvict MSHR misses
system.l2.CleanEvict_mshr_misses::total         19267                       # number of CleanEvict MSHR misses
system.l2.CleanEvict_mshr_miss_rate::.writebacks          inf                       # mshr miss rate for CleanEvict accesses
system.l2.CleanEvict_mshr_miss_rate::total          inf                       # mshr miss rate for CleanEvict accesses
system.l2.HardPFReq_mshr_misses::.l2.prefetcher           50                       # number of HardPFReq MSHR misses
system.l2.HardPFReq_mshr_misses::total             50                       # number of HardPFReq MSHR misses
system.l2.HardPFReq_mshr_miss_latency::.l2.prefetcher      4098962                       # number of HardPFReq MSHR miss cycles
system.l2.HardPFReq_mshr_miss_latency::total      4098962                       # number of HardPFReq MSHR miss cycles
system.l2.HardPFReq_mshr_miss_rate::.l2.prefetcher          inf                       # mshr miss rate for HardPFReq accesses
system.l2.HardPFReq_mshr_miss_rate::total          inf                       # mshr miss rate for HardPFReq accesses
system.l2.HardPFReq_avg_mshr_miss_latency::.l2.prefetcher 81979.240000                       # average HardPFReq mshr miss latency
system.l2.HardPFReq_avg_mshr_miss_latency::total 81979.240000                       # average HardPFReq mshr miss latency
system.l2.ReadExReq_hits::.switch_cpus.data        13440                       # number of ReadExReq hits
system.l2.ReadExReq_hits::total                 13440                       # number of ReadExReq hits
system.l2.ReadExReq_misses::.switch_cpus.data         7410                       # number of ReadExReq misses
system.l2.ReadExReq_misses::total                7410                       # number of ReadExReq misses
system.l2.ReadExReq_miss_latency::.switch_cpus.data    622900500                       # number of ReadExReq miss cycles
system.l2.ReadExReq_miss_latency::total     622900500                       # number of ReadExReq miss cycles
system.l2.ReadExReq_accesses::.switch_cpus.data        20850                       # number of ReadExReq accesses(hits+misses)
system.l2.ReadExReq_accesses::total             20850                       # number of ReadExReq accesses(hits+misses)
system.l2.ReadExReq_miss_rate::.switch_cpus.data     0.355396                       # miss rate for ReadExReq accesses
system.l2.ReadExReq_miss_rate::total         0.355396                       # miss rate for ReadExReq accesses
system.l2.ReadExReq_avg_miss_latency::.switch_cpus.data 84062.145749                       # average ReadExReq miss latency
system.l2.ReadExReq_avg_miss_latency::total 84062.145749                       # average ReadExReq miss latency
system.l2.ReadExReq_mshr_misses::.switch_cpus.data         7410                       # number of ReadExReq MSHR misses
system.l2.ReadExReq_mshr_misses::total           7410                       # number of ReadExReq MSHR misses
system.l2.ReadExReq_mshr_miss_latency::.switch_cpus.data    548800500                       # number of ReadExReq MSHR miss cycles
system.l2.ReadExReq_mshr_miss_latency::total    548800500                       # number of ReadExReq MSHR miss cycles
system.l2.ReadExReq_mshr_miss_rate::.switch_cpus.data     0.355396                       # mshr miss rate for ReadExReq accesses
system.l2.ReadExReq_mshr_miss_rate::total     0.355396                       # mshr miss rate for ReadExReq accesses
system.l2.ReadExReq_avg_mshr_miss_latency::.switch_cpus.data 74062.145749                       # average ReadExReq mshr miss latency
system.l2.ReadExReq_avg_mshr_miss_latency::total 74062.145749                       # average ReadExReq mshr miss latency
system.l2.ReadCleanReq_misses::.cpu.inst            1                       # number of ReadCleanReq misses
system.l2.ReadCleanReq_misses::.switch_cpus.inst           61                       # number of ReadCleanReq misses
system.l2.ReadCleanReq_misses::total               62                       # number of ReadCleanReq misses
system.l2.ReadCleanReq_miss_latency::.switch_cpus.inst      5263000                       # number of ReadCleanReq miss cycles
[...]
system.cpu.interrupts.clk_domain.clock           8000                       # Clock period in ticks
system.cpu.itb_walker_cache.pwrStateResidencyTicks::UNDEFINED 164710691034500                       # Cumulative time (in ticks) in various power states
system.cpu.itb_walker_cache.blocked_cycles::no_mshrs            0                       # number of cycles access was blocked
system.cpu.itb_walker_cache.blocked_cycles::no_targets            0                       # number of cycles access was blocked
system.cpu.itb_walker_cache.blocked::no_mshrs            0                       # number of cycles access was blocked
system.cpu.itb_walker_cache.blocked::no_targets            0                       # number of cycles access was blocked
system.cpu.itb_walker_cache.avg_blocked_cycles::no_mshrs          nan                       # average number of cycles each access was blocked
system.cpu.itb_walker_cache.avg_blocked_cycles::no_targets          nan                       # average number of cycles each access was blocked
system.cpu.itb_walker_cache.replacements            0                       # number of replacements
system.cpu.itb_walker_cache.tags.pwrStateResidencyTicks::UNDEFINED 164710691034500                       # Cumulative time (in ticks) in various power states
system.cpu.itb_walker_cache.tags.tagsinuse            0                       # Cycle average of tags in use
system.cpu.itb_walker_cache.tags.total_refs            0                       # Total number of references to valid blocks.
system.cpu.itb_walker_cache.tags.sampled_refs            0                       # Sample count of references to valid blocks.
system.cpu.itb_walker_cache.tags.avg_refs          nan                       # Average number of references to valid blocks.
system.cpu.itb_walker_cache.tags.warmup_cycle            0                       # Cycle when the warmup percentage was hit.
system.cpu.itb_walker_cache.tags.tag_accesses            0                       # Number of tag accesses
system.cpu.itb_walker_cache.tags.data_accesses            0                       # Number of data accesses
system.cpu.itb.walker.pwrStateResidencyTicks::UNDEFINED 164710691034500                       # Cumulative time (in ticks) in various power states
system.cpu.dtb_walker_cache.pwrStateResidencyTicks::UNDEFINED 164710691034500                       # Cumulative time (in ticks) in various power states
system.cpu.dtb_walker_cache.blocked_cycles::no_mshrs            0                       # number of cycles access was blocked
system.cpu.dtb_walker_cache.blocked_cycles::no_targets            0                       # number of cycles access was blocked
system.cpu.dtb_walker_cache.blocked::no_mshrs            0                       # number of cycles access was blocked
system.cpu.dtb_walker_cache.blocked::no_targets            0                       # number of cycles access was blocked
system.cpu.dtb_walker_cache.avg_blocked_cycles::no_mshrs          nan                       # average number of cycles each access was blocked
system.cpu.dtb_walker_cache.avg_blocked_cycles::no_targets          nan                       # average number of cycles each access was blocked
system.cpu.dtb_walker_cache.replacements            0                       # number of replacements
system.cpu.dtb_walker_cache.tags.pwrStateResidencyTicks::UNDEFINED 164710691034500                       # Cumulative time (in ticks) in various power states
system.cpu.dtb_walker_cache.tags.tagsinuse            0                       # Cycle average of tags in use
system.cpu.dtb_walker_cache.tags.total_refs            0                       # Total number of references to valid blocks.
system.cpu.dtb_walker_cache.tags.sampled_refs            0                       # Sample count of references to valid blocks.
system.cpu.dtb_walker_cache.tags.avg_refs          nan                       # Average number of references to valid blocks.
system.cpu.dtb_walker_cache.tags.warmup_cycle            0                       # Cycle when the warmup percentage was hit.
system.cpu.dtb_walker_cache.tags.tag_accesses            0                       # Number of tag accesses
system.cpu.dtb_walker_cache.tags.data_accesses            0                       # Number of data accesses
system.cpu.dcache.pwrStateResidencyTicks::UNDEFINED 164710691034500                       # Cumulative time (in ticks) in various power states
system.cpu.dcache.demand_hits::.cpu.data            2                       # number of demand (read+write) hits
system.cpu.dcache.demand_hits::.switch_cpus.data     14405428                       # number of demand (read+write) hits
system.cpu.dcache.demand_hits::total         14405430                       # number of demand (read+write) hits
system.cpu.dcache.overall_hits::.cpu.data            2                       # number of overall hits
system.cpu.dcache.overall_hits::.switch_cpus.data     14405428                       # number of overall hits
system.cpu.dcache.overall_hits::total        14405430                       # number of overall hits
system.cpu.dcache.demand_misses::.cpu.data            5                       # number of demand (read+write) misses
system.cpu.dcache.demand_misses::.switch_cpus.data      8072064                       # number of demand (read+write) misses
system.cpu.dcache.demand_misses::total        8072069                       # number of demand (read+write) misses
system.cpu.dcache.overall_misses::.cpu.data            5                       # number of overall misses
system.cpu.dcache.overall_misses::.switch_cpus.data      8072064                       # number of overall misses
system.cpu.dcache.overall_misses::total       8072069                       # number of overall misses
system.cpu.dcache.demand_miss_latency::.switch_cpus.data 517250910270                       # number of demand (read+write) miss cycles
system.cpu.dcache.demand_miss_latency::total 517250910270                       # number of demand (read+write) miss cycles
system.cpu.dcache.overall_miss_latency::.switch_cpus.data 517250910270                       # number of overall miss cycles
system.cpu.dcache.overall_miss_latency::total 517250910270                       # number of overall miss cycles
system.cpu.dcache.demand_accesses::.cpu.data            7                       # number of demand (read+write) accesses
system.cpu.dcache.demand_accesses::.switch_cpus.data     22477492                       # number of demand (read+write) accesses
system.cpu.dcache.demand_accesses::total     22477499                       # number of demand (read+write) accesses
system.cpu.dcache.overall_accesses::.cpu.data            7                       # number of overall (read+write) accesses
system.cpu.dcache.overall_accesses::.switch_cpus.data     22477492                       # number of overall (read+write) accesses
system.cpu.dcache.overall_accesses::total     22477499                       # number of overall (read+write) accesses
system.cpu.dcache.demand_miss_rate::.cpu.data     0.714286                       # miss rate for demand accesses
system.cpu.dcache.demand_miss_rate::.switch_cpus.data     0.359118                       # miss rate for demand accesses
system.cpu.dcache.demand_miss_rate::total     0.359118                       # miss rate for demand accesses
system.cpu.dcache.overall_miss_rate::.cpu.data     0.714286                       # miss rate for overall accesses
system.cpu.dcache.overall_miss_rate::.switch_cpus.data     0.359118                       # miss rate for overall accesses
system.cpu.dcache.overall_miss_rate::total     0.359118                       # miss rate for overall accesses
system.cpu.dcache.demand_avg_miss_latency::.switch_cpus.data 64079.138901                       # average overall miss latency
system.cpu.dcache.demand_avg_miss_latency::total 64079.099209                       # average overall miss latency
system.cpu.dcache.overall_avg_miss_latency::.switch_cpus.data 64079.138901                       # average overall miss latency
system.cpu.dcache.overall_avg_miss_latency::total 64079.099209                       # average overall miss latency
system.cpu.dcache.blocked_cycles::no_mshrs     82221425                       # number of cycles access was blocked
system.cpu.dcache.blocked_cycles::no_targets         1394                       # number of cycles access was blocked
system.cpu.dcache.blocked::no_mshrs           2328116                       # number of cycles access was blocked
system.cpu.dcache.blocked::no_targets              42                       # number of cycles access was blocked
system.cpu.dcache.avg_blocked_cycles::no_mshrs    35.316722                       # average number of cycles each access was blocked
system.cpu.dcache.avg_blocked_cycles::no_targets    33.190476                       # average number of cycles each access was blocked
system.cpu.dcache.writebacks::.writebacks       731759                       # number of writebacks
system.cpu.dcache.writebacks::total            731759                       # number of writebacks
system.cpu.dcache.demand_mshr_hits::.switch_cpus.data      4312092                       # number of demand (read+write) MSHR hits
system.cpu.dcache.demand_mshr_hits::total      4312092                       # number of demand (read+write) MSHR hits
system.cpu.dcache.overall_mshr_hits::.switch_cpus.data      4312092                       # number of overall MSHR hits
system.cpu.dcache.overall_mshr_hits::total      4312092                       # number of overall MSHR hits
system.cpu.dcache.demand_mshr_misses::.switch_cpus.data      3759972                       # number of demand (read+write) MSHR misses
system.cpu.dcache.demand_mshr_misses::total      3759972                       # number of demand (read+write) MSHR misses
system.cpu.dcache.overall_mshr_misses::.switch_cpus.data      3759972                       # number of overall MSHR misses
system.cpu.dcache.overall_mshr_misses::total      3759972                       # number of overall MSHR misses
system.cpu.dcache.demand_mshr_miss_latency::.switch_cpus.data 255232998986                       # number of demand (read+write) MSHR miss cycles
system.cpu.dcache.demand_mshr_miss_latency::total 255232998986                       # number of demand (read+write) MSHR miss cycles
system.cpu.dcache.overall_mshr_miss_latency::.switch_cpus.data 255232998986                       # number of overall MSHR miss cycles
system.cpu.dcache.overall_mshr_miss_latency::total 255232998986                       # number of overall MSHR miss cycles
system.cpu.dcache.demand_mshr_miss_rate::.switch_cpus.data     0.167277                       # mshr miss rate for demand accesses
system.cpu.dcache.demand_mshr_miss_rate::total     0.167277                       # mshr miss rate for demand accesses
system.cpu.dcache.overall_mshr_miss_rate::.switch_cpus.data     0.167277                       # mshr miss rate for overall accesses
system.cpu.dcache.overall_mshr_miss_rate::total     0.167277                       # mshr miss rate for overall accesses
system.cpu.dcache.demand_avg_mshr_miss_latency::.switch_cpus.data 67881.622253                       # average overall mshr miss latency
system.cpu.dcache.demand_avg_mshr_miss_latency::total 67881.622253                       # average overall mshr miss latency
system.cpu.dcache.overall_avg_mshr_miss_latency::.switch_cpus.data 67881.622253                       # average overall mshr miss latency
system.cpu.dcache.overall_avg_mshr_miss_latency::total 67881.622253                       # average overall mshr miss latency
system.cpu.dcache.replacements                3758953                       # number of replacements
system.cpu.dcache.ReadReq_hits::.switch_cpus.data     11929743                       # number of ReadReq hits
system.cpu.dcache.ReadReq_hits::total        11929743                       # number of ReadReq hits
system.cpu.dcache.ReadReq_misses::.cpu.data            5                       # number of ReadReq misses
system.cpu.dcache.ReadReq_misses::.switch_cpus.data      7981476                       # number of ReadReq misses
system.cpu.dcache.ReadReq_misses::total       7981481                       # number of ReadReq misses
system.cpu.dcache.ReadReq_miss_latency::.switch_cpus.data 513895141000                       # number of ReadReq miss cycles
system.cpu.dcache.ReadReq_miss_latency::total 513895141000                       # number of ReadReq miss cycles
system.cpu.dcache.ReadReq_accesses::.cpu.data            5                       # number of ReadReq accesses(hits+misses)
system.cpu.dcache.ReadReq_accesses::.switch_cpus.data     19911219                       # number of ReadReq accesses(hits+misses)
system.cpu.dcache.ReadReq_accesses::total     19911224                       # number of ReadReq accesses(hits+misses)
system.cpu.dcache.ReadReq_miss_rate::.cpu.data            1                       # miss rate for ReadReq accesses
system.cpu.dcache.ReadReq_miss_rate::.switch_cpus.data     0.400853                       # miss rate for ReadReq accesses
system.cpu.dcache.ReadReq_miss_rate::total     0.400853                       # miss rate for ReadReq accesses
system.cpu.dcache.ReadReq_avg_miss_latency::.switch_cpus.data 64385.978358                       # average ReadReq miss latency
system.cpu.dcache.ReadReq_avg_miss_latency::total 64385.938023                       # average ReadReq miss latency
system.cpu.dcache.ReadReq_mshr_hits::.switch_cpus.data      4310369                       # number of ReadReq MSHR hits
system.cpu.dcache.ReadReq_mshr_hits::total      4310369                       # number of ReadReq MSHR hits
system.cpu.dcache.ReadReq_mshr_misses::.switch_cpus.data      3671107                       # number of ReadReq MSHR misses
system.cpu.dcache.ReadReq_mshr_misses::total      3671107                       # number of ReadReq MSHR misses
system.cpu.dcache.ReadReq_mshr_miss_latency::.switch_cpus.data 251991261500                       # number of ReadReq MSHR miss cycles
system.cpu.dcache.ReadReq_mshr_miss_latency::total 251991261500                       # number of ReadReq MSHR miss cycles
system.cpu.dcache.ReadReq_mshr_miss_rate::.switch_cpus.data     0.184374                       # mshr miss rate for ReadReq accesses
system.cpu.dcache.ReadReq_mshr_miss_rate::total     0.184374                       # mshr miss rate for ReadReq accesses
system.cpu.dcache.ReadReq_avg_mshr_miss_latency::.switch_cpus.data 68641.764323                       # average ReadReq mshr miss latency
system.cpu.dcache.ReadReq_avg_mshr_miss_latency::total 68641.764323                       # average ReadReq mshr miss latency
system.cpu.dcache.WriteReq_hits::.cpu.data            2                       # number of WriteReq hits
system.cpu.dcache.WriteReq_hits::.switch_cpus.data      2475685                       # number of WriteReq hits
system.cpu.dcache.WriteReq_hits::total        2475687                       # number of WriteReq hits
system.cpu.dcache.WriteReq_misses::.switch_cpus.data        90588                       # number of WriteReq misses
system.cpu.dcache.WriteReq_misses::total        90588                       # number of WriteReq misses
system.cpu.dcache.WriteReq_miss_latency::.switch_cpus.data   3355769270                       # number of WriteReq miss cycles
system.cpu.dcache.WriteReq_miss_latency::total   3355769270                       # number of WriteReq miss cycles
system.cpu.dcache.WriteReq_accesses::.cpu.data            2                       # number of WriteReq accesses(hits+misses)
system.cpu.dcache.WriteReq_accesses::.switch_cpus.data      2566273                       # number of WriteReq accesses(hits+misses)
system.cpu.dcache.WriteReq_accesses::total      2566275                       # number of WriteReq accesses(hits+misses)
system.cpu.dcache.WriteReq_miss_rate::.switch_cpus.data     0.035299                       # miss rate for WriteReq accesses
system.cpu.dcache.WriteReq_miss_rate::total     0.035299                       # miss rate for WriteReq accesses
system.cpu.dcache.WriteReq_avg_miss_latency::.switch_cpus.data 37044.302446                       # average WriteReq miss latency
system.cpu.dcache.WriteReq_avg_miss_latency::total 37044.302446                       # average WriteReq miss latency
system.cpu.dcache.WriteReq_mshr_hits::.switch_cpus.data         1723                       # number of WriteReq MSHR hits
system.cpu.dcache.WriteReq_mshr_hits::total         1723                       # number of WriteReq MSHR hits
system.cpu.dcache.WriteReq_mshr_misses::.switch_cpus.data        88865                       # number of WriteReq MSHR misses
system.cpu.dcache.WriteReq_mshr_misses::total        88865                       # number of WriteReq MSHR misses
system.cpu.dcache.WriteReq_mshr_miss_latency::.switch_cpus.data   3241737486                       # number of WriteReq MSHR miss cycles
system.cpu.dcache.WriteReq_mshr_miss_latency::total   3241737486                       # number of WriteReq MSHR miss cycles
system.cpu.dcache.WriteReq_mshr_miss_rate::.switch_cpus.data     0.034628                       # mshr miss rate for WriteReq accesses
system.cpu.dcache.WriteReq_mshr_miss_rate::total     0.034628                       # mshr miss rate for WriteReq accesses
system.cpu.dcache.WriteReq_avg_mshr_miss_latency::.switch_cpus.data 36479.350543                       # average WriteReq mshr miss latency
system.cpu.dcache.WriteReq_avg_mshr_miss_latency::total 36479.350543                       # average WriteReq mshr miss latency
system.cpu.dcache.tags.pwrStateResidencyTicks::UNDEFINED 164710691034500                       # Cumulative time (in ticks) in various power states
system.cpu.dcache.tags.tagsinuse             0.659270                       # Cycle average of tags in use
system.cpu.dcache.tags.total_refs            18165407                       # Total number of references to valid blocks.
system.cpu.dcache.tags.sampled_refs           3759977                       # Sample count of references to valid blocks.
system.cpu.dcache.tags.avg_refs              4.831255                       # Average number of references to valid blocks.
system.cpu.dcache.tags.warmup_cycle      164604626644500                       # Cycle when the warmup percentage was hit.
system.cpu.dcache.tags.occ_blocks::.cpu.data     0.000002                       # Average occupied blocks per requestor
system.cpu.dcache.tags.occ_blocks::.switch_cpus.data     0.659268                       # Average occupied blocks per requestor
system.cpu.dcache.tags.occ_percent::.cpu.data     0.000000                       # Average percentage of cache occupancy
system.cpu.dcache.tags.occ_percent::.switch_cpus.data     0.000644                       # Average percentage of cache occupancy
system.cpu.dcache.tags.occ_percent::total     0.000644                       # Average percentage of cache occupancy
system.cpu.dcache.tags.occ_task_id_blocks::1024         1024                       # Occupied blocks per task id
system.cpu.dcache.tags.age_task_id_blocks_1024::0          171                       # Occupied blocks per task id
system.cpu.dcache.tags.age_task_id_blocks_1024::1          765                       # Occupied blocks per task id
system.cpu.dcache.tags.age_task_id_blocks_1024::2           87                       # Occupied blocks per task id
system.cpu.dcache.tags.age_task_id_blocks_1024::3            1                       # Occupied blocks per task id
system.cpu.dcache.tags.occ_task_id_percent::1024            1                       # Percentage of cache occupancy per task id
system.cpu.dcache.tags.tag_accesses          48714975                       # Number of tag accesses
system.cpu.dcache.tags.data_accesses         48714975                       # Number of data accesses

---------- End Simulation Statistics   ----------
