
---------- Begin Simulation Statistics ----------
final_tick                               136220509700500                       # Number of ticks from beginning of simulation (restored from checkpoints and never reset)
host_inst_rate                                  67913                       # Simulator instruction rate (inst/s)
host_mem_usage                                 830700                       # Number of bytes of host memory used
host_op_rate                                   138610                       # Simulator op (including micro ops) rate (op/s)
host_seconds                                   147.25                       # Real time elapsed on the host
host_tick_rate                               41585768                       # Simulator tick rate (ticks/s)
sim_freq                                 1000000000000                       # Frequency of simulated ticks
sim_insts                                    10000010                       # Number of instructions simulated
sim_ops                                      20409943                       # Number of ops (including micro ops) simulated
sim_seconds                                  0.006123                       # Number of seconds simulated
sim_ticks                                  6123379250                       # Number of ticks simulated
system.cpu.Branches                                 2                       # Number of branches fetched
system.cpu.committedInsts                           8                       # Number of instructions committed
system.cpu.committedOps                            16                       # Number of ops (including micro ops) committed
system.cpu.dtb.rdAccesses                           3                       # TLB accesses on read requests
system.cpu.dtb.rdMisses                             0                       # TLB misses on read requests
system.cpu.dtb.wrAccesses                           0                       # TLB accesses on write requests
system.cpu.dtb.wrMisses                             0                       # TLB misses on write requests
system.cpu.idle_fraction                            0                       # Percentage of idle cycles
system.cpu.itb.rdAccesses                           0                       # TLB accesses on read requests
system.cpu.itb.rdMisses                             0                       # TLB misses on read requests
system.cpu.itb.wrAccesses                          11                       # TLB accesses on write requests
system.cpu.itb.wrMisses                             0                       # TLB misses on write requests
system.cpu.not_idle_fraction                        1                       # Percentage of non-idle cycles
system.cpu.numCycles                               19                       # number of cpu cycles simulated
system.cpu.numWorkItemsCompleted                    0                       # number of work items this cpu completed
system.cpu.numWorkItemsStarted                      0                       # number of work items this cpu started
system.cpu.num_busy_cycles                         19                       # Number of busy cycles
system.cpu.num_cc_register_reads                   10                       # number of times the CC registers were read
system.cpu.num_cc_register_writes                   4                       # number of times the CC registers were written
system.cpu.num_conditional_control_insts            2                       # number of instructions that are conditional controls
system.cpu.num_fp_alu_accesses                      0                       # Number of float alu accesses
system.cpu.num_fp_insts                             0                       # number of float instructions
system.cpu.num_fp_register_reads                    0                       # number of times the floating registers were read
system.cpu.num_fp_register_writes                   0                       # number of times the floating registers were written
system.cpu.num_func_calls                           0                       # number of times a function call or return occured
system.cpu.num_idle_cycles                          0                       # Number of idle cycles
system.cpu.num_int_alu_accesses                    16                       # Number of integer alu accesses
system.cpu.num_int_insts                           16                       # number of integer instructions
system.cpu.num_int_register_reads                  33                       # number of times the integer registers were read
system.cpu.num_int_register_writes                 14                       # number of times the integer registers were written
system.cpu.num_load_insts                           3                       # Number of load instructions
system.cpu.num_mem_refs                             3                       # number of memory refs
system.cpu.num_store_insts                          0                       # Number of store instructions
system.cpu.num_vec_alu_accesses                     0                       # Number of vector alu accesses
system.cpu.num_vec_insts                            0                       # number of vector instructions
system.cpu.num_vec_register_reads                   0                       # number of times the vector registers were read
system.cpu.num_vec_register_writes                  0                       # number of times the vector registers were written
system.cpu.op_class::No_OpClass                     0      0.00%      0.00% # Class of executed instruction
system.cpu.op_class::IntAlu                        13     81.25%     81.25% # Class of executed instruction
system.cpu.op_class::IntMult                        0      0.00%     81.25% # Class of executed instruction
system.cpu.op_class::IntDiv                         0      0.00%     81.25% # Class of executed instruction
system.cpu.op_class::FloatAdd                       0      0.00%     81.25% # Class of executed instruction
system.cpu.op_class::FloatCmp                       0      0.00%     81.25% # Class of executed instruction
system.cpu.op_class::FloatCvt                       0      0.00%     81.25% # Class of executed instruction
system.cpu.op_class::FloatMult                      0      0.00%     81.25% # Class of executed instruction
system.cpu.op_class::FloatMultAcc                   0      0.00%     81.25% # Class of executed instruction
system.cpu.op_class::FloatDiv                       0      0.00%     81.25% # Class of executed instruction
system.cpu.op_class::FloatMisc                      0      0.00%     81.25% # Class of executed instruction
system.cpu.op_class::FloatSqrt                      0      0.00%     81.25% # Class of executed instruction
system.cpu.op_class::SimdAdd                        0      0.00%     81.25% # Class of executed instruction
system.cpu.op_class::SimdAddAcc                     0      0.00%     81.25% # Class of executed instruction
system.cpu.op_class::SimdAlu                        0      0.00%     81.25% # Class of executed instruction
system.cpu.op_class::SimdCmp                        0      0.00%     81.25% # Class of executed instruction
system.cpu.op_class::SimdCvt                        0      0.00%     81.25% # Class of executed instruction
system.cpu.op_class::SimdMisc                       0      0.00%     81.25% # Class of executed instruction
system.cpu.op_class::SimdMult                       0      0.00%     81.25% # Class of executed instruction
system.cpu.op_class::SimdMultAcc                    0      0.00%     81.25% # Class of executed instruction
system.cpu.op_class::SimdShift                      0      0.00%     81.25% # Class of executed instruction
system.cpu.op_class::SimdShiftAcc                   0      0.00%     81.25% # Class of executed instruction
system.cpu.op_class::SimdDiv                        0      0.00%     81.25% # Class of executed instruction
system.cpu.op_class::SimdSqrt                       0      0.00%     81.25% # Class of executed instruction
system.cpu.op_class::SimdFloatAdd                   0      0.00%     81.25% # Class of executed instruction
system.cpu.op_class::SimdFloatAlu                   0      0.00%     81.25% # Class of executed instruction
system.cpu.op_class::SimdFloatCmp                   0      0.00%     81.25% # Class of executed instruction
system.cpu.op_class::SimdFloatCvt                   0      0.00%     81.25% # Class of executed instruction
system.cpu.op_class::SimdFloatDiv                   0      0.00%     81.25% # Class of executed instruction
system.cpu.op_class::SimdFloatMisc                  0      0.00%     81.25% # Class of executed instruction
system.cpu.op_class::SimdFloatMult                  0      0.00%     81.25% # Class of executed instruction
system.cpu.op_class::SimdFloatMultAcc               0      0.00%     81.25% # Class of executed instruction
system.cpu.op_class::SimdFloatSqrt                  0      0.00%     81.25% # Class of executed instruction
system.cpu.op_class::SimdReduceAdd                  0      0.00%     81.25% # Class of executed instruction
system.cpu.op_class::SimdReduceAlu                  0      0.00%     81.25% # Class of executed instruction
system.cpu.op_class::SimdReduceCmp                  0      0.00%     81.25% # Class of executed instruction
system.cpu.op_class::SimdFloatReduceAdd             0      0.00%     81.25% # Class of executed instruction
system.cpu.op_class::SimdFloatReduceCmp             0      0.00%     81.25% # Class of executed instruction
system.cpu.op_class::SimdAes                        0      0.00%     81.25% # Class of executed instruction
system.cpu.op_class::SimdAesMix                     0      0.00%     81.25% # Class of executed instruction
system.cpu.op_class::SimdSha1Hash                   0      0.00%     81.25% # Class of executed instruction
system.cpu.op_class::SimdSha1Hash2                  0      0.00%     81.25% # Class of executed instruction
system.cpu.op_class::SimdSha256Hash                 0      0.00%     81.25% # Class of executed instruction
system.cpu.op_class::SimdSha256Hash2                0      0.00%     81.25% # Class of executed instruction
system.cpu.op_class::SimdShaSigma2                  0      0.00%     81.25% # Class of executed instruction
system.cpu.op_class::SimdShaSigma3                  0      0.00%     81.25% # Class of executed instruction
system.cpu.op_class::SimdPredAlu                    0      0.00%     81.25% # Class of executed instruction
system.cpu.op_class::MemRead                        3     18.75%    100.00% # Class of executed instruction
system.cpu.op_class::MemWrite                       0      0.00%    100.00% # Class of executed instruction
system.cpu.op_class::FloatMemRead                   0      0.00%    100.00% # Class of executed instruction
system.cpu.op_class::FloatMemWrite                  0      0.00%    100.00% # Class of executed instruction
system.cpu.op_class::IprAccess                      0      0.00%    100.00% # Class of executed instruction
system.cpu.op_class::InstPrefetch                   0      0.00%    100.00% # Class of executed instruction
system.cpu.op_class::total                         16                       # Class of executed instruction
system.cpu.workload.numSyscalls                     0                       # Number of system calls
system.membus.snoop_filter.hit_multi_requests            0                       # Number of requests hitting in the snoop filter with multiple (>1) holders of the requested data.
system.membus.snoop_filter.hit_multi_snoops            0                       # Number of snoops hitting in the snoop filter with multiple (>1) holders of the requested data.
system.membus.snoop_filter.hit_single_requests        65213                       # Number of requests hitting in the snoop filter with a single holder of the requested data.
system.membus.snoop_filter.hit_single_snoops            0                       # Number of snoops hitting in the snoop filter with a single holder of the requested data.
system.membus.snoop_filter.tot_requests        138664                       # Total number of requests made to the snoop filter.
system.membus.snoop_filter.tot_snoops               0                       # Total number of snoops made to the snoop filter.
system.switch_cpus.branchPred.BTBCorrect            0                       # Number of correct BTB predictions (this stat may not work properly.
system.switch_cpus.branchPred.BTBHitPct      0.000000                       # BTB Hit Percentage
system.switch_cpus.branchPred.BTBHits               0                       # Number of BTB hits
system.switch_cpus.branchPred.BTBLookups      2283835                       # Number of BTB lookups
system.switch_cpus.branchPred.RASInCorrect            1                       # Number of incorrect RAS predictions.
system.switch_cpus.branchPred.condIncorrect          212                       # Number of conditional branches incorrect
system.switch_cpus.branchPred.condPredicted      2603620                       # Number of conditional branches predicted
system.switch_cpus.branchPred.indirectHits       410949                       # Number of indirect target hits.
system.switch_cpus.branchPred.indirectLookups      2283835                       # Number of indirect predictor lookups.
system.switch_cpus.branchPred.indirectMisses      1872886                       # Number of indirect misses.
system.switch_cpus.branchPred.lookups         2603797                       # Number of BP lookups
system.switch_cpus.branchPred.usedRAS             103                       # Number of times the RAS was used to get a target.
system.switch_cpus.branchPredindirectMispredicted          140                       # Number of mispredicted indirect branches.
system.switch_cpus.cc_regfile_reads          13013899                       # number of cc regfile reads
system.switch_cpus.cc_regfile_writes          6028155                       # number of cc regfile writes
system.switch_cpus.commit.amos                      0                       # Number of atomic instructions committed
system.switch_cpus.commit.branchMispredicts          216                       # The number of times a branch was mispredicted
system.switch_cpus.commit.branches            2602496                       # Number of branches committed
system.switch_cpus.commit.bw_lim_events       2361805                       # number cycles where commit BW limit reached
system.switch_cpus.commit.commitSquashedInsts         7455                       # The number of squashed insts skipped by commit
system.switch_cpus.commit.committedInsts     10000002                       # Number of instructions committed
system.switch_cpus.commit.committedOps       20409927                       # Number of ops (including micro ops) committed
system.switch_cpus.commit.committed_per_cycle::samples     12241862                       # Number of insts commited each cycle
system.switch_cpus.commit.committed_per_cycle::mean     1.667224                       # Number of insts commited each cycle
system.switch_cpus.commit.committed_per_cycle::stdev     3.175891                       # Number of insts commited each cycle
system.switch_cpus.commit.committed_per_cycle::underflows            0      0.00%      0.00% # Number of insts commited each cycle
system.switch_cpus.commit.committed_per_cycle::0      9328241     76.20%     76.20% # Number of insts commited each cycle
system.switch_cpus.commit.committed_per_cycle::1       247146      2.02%     78.22% # Number of insts commited each cycle
system.switch_cpus.commit.committed_per_cycle::2         8063      0.07%     78.28% # Number of insts commited each cycle
system.switch_cpus.commit.committed_per_cycle::3       177090      1.45%     79.73% # Number of insts commited each cycle
system.switch_cpus.commit.committed_per_cycle::4        12768      0.10%     79.84% # Number of insts commited each cycle
system.switch_cpus.commit.committed_per_cycle::5        22458      0.18%     80.02% # Number of insts commited each cycle
system.switch_cpus.commit.committed_per_cycle::6        32454      0.27%     80.28% # Number of insts commited each cycle
system.switch_cpus.commit.committed_per_cycle::7        51837      0.42%     80.71% # Number of insts commited each cycle
system.switch_cpus.commit.committed_per_cycle::8      2361805     19.29%    100.00% # Number of insts commited each cycle
system.switch_cpus.commit.committed_per_cycle::overflows            0      0.00%    100.00% # Number of insts commited each cycle
system.switch_cpus.commit.committed_per_cycle::min_value            0                       # Number of insts commited each cycle
system.switch_cpus.commit.committed_per_cycle::max_value            8                       # Number of insts commited each cycle
system.switch_cpus.commit.committed_per_cycle::total     12241862                       # Number of insts commited each cycle
system.switch_cpus.commit.fp_insts                  0                       # Number of committed floating point instructions.
system.switch_cpus.commit.function_calls           10                       # Number of function calls committed.
system.switch_cpus.commit.int_insts          20409909                       # Number of committed integer instructions.
system.switch_cpus.commit.loads               4520346                       # Number of loads committed
system.switch_cpus.commit.membars                   0                       # Number of memory barriers committed
system.switch_cpus.commit.op_class_0::No_OpClass           18      0.00%      0.00% # Class of committed instruction
system.switch_cpus.commit.op_class_0::IntAlu     15752357     77.18%     77.18% # Class of committed instruction
system.switch_cpus.commit.op_class_0::IntMult            0      0.00%     77.18% # Class of committed instruction
system.switch_cpus.commit.op_class_0::IntDiv            0      0.00%     77.18% # Class of committed instruction
system.switch_cpus.commit.op_class_0::FloatAdd            0      0.00%     77.18% # Class of committed instruction
system.switch_cpus.commit.op_class_0::FloatCmp            0      0.00%     77.18% # Class of committed instruction
system.switch_cpus.commit.op_class_0::FloatCvt            0      0.00%     77.18% # Class of committed instruction
system.switch_cpus.commit.op_class_0::FloatMult            0      0.00%     77.18% # Class of committed instruction
system.switch_cpus.commit.op_class_0::FloatMultAcc            0      0.00%     77.18% # Class of committed instruction
system.switch_cpus.commit.op_class_0::FloatDiv            0      0.00%     77.18% # Class of committed instruction
system.switch_cpus.commit.op_class_0::FloatMisc            0      0.00%     77.18% # Class of committed instruction
system.switch_cpus.commit.op_class_0::FloatSqrt            0      0.00%     77.18% # Class of committed instruction
system.switch_cpus.commit.op_class_0::SimdAdd            0      0.00%     77.18% # Class of committed instruction
system.switch_cpus.commit.op_class_0::SimdAddAcc            0      0.00%     77.18% # Class of committed instruction
system.switch_cpus.commit.op_class_0::SimdAlu            0      0.00%     77.18% # Class of committed instruction
system.switch_cpus.commit.op_class_0::SimdCmp            0      0.00%     77.18% # Class of committed instruction
system.switch_cpus.commit.op_class_0::SimdCvt            0      0.00%     77.18% # Class of committed instruction
system.switch_cpus.commit.op_class_0::SimdMisc            0      0.00%     77.18% # Class of committed instruction
system.switch_cpus.commit.op_class_0::SimdMult            0      0.00%     77.18% # Class of committed instruction
system.switch_cpus.commit.op_class_0::SimdMultAcc            0      0.00%     77.18% # Class of committed instruction
system.switch_cpus.commit.op_class_0::SimdShift            0      0.00%     77.18% # Class of committed instruction
system.switch_cpus.commit.op_class_0::SimdShiftAcc            0      0.00%     77.18% # Class of committed instruction
system.switch_cpus.commit.op_class_0::SimdDiv            0      0.00%     77.18% # Class of committed instruction
system.switch_cpus.commit.op_class_0::SimdSqrt            0      0.00%     77.18% # Class of committed instruction
system.switch_cpus.commit.op_class_0::SimdFloatAdd            0      0.00%     77.18% # Class of committed instruction
system.switch_cpus.commit.op_class_0::SimdFloatAlu            0      0.00%     77.18% # Class of committed instruction
system.switch_cpus.commit.op_class_0::SimdFloatCmp            0      0.00%     77.18% # Class of committed instruction
system.switch_cpus.commit.op_class_0::SimdFloatCvt            0      0.00%     77.18% # Class of committed instruction
system.switch_cpus.commit.op_class_0::SimdFloatDiv            0      0.00%     77.18% # Class of committed instruction
system.switch_cpus.commit.op_class_0::SimdFloatMisc            0      0.00%     77.18% # Class of committed instruction
system.switch_cpus.commit.op_class_0::SimdFloatMult            0      0.00%     77.18% # Class of committed instruction
system.switch_cpus.commit.op_class_0::SimdFloatMultAcc            0      0.00%     77.18% # Class of committed instruction
system.switch_cpus.commit.op_class_0::SimdFloatSqrt            0      0.00%     77.18% # Class of committed instruction
system.switch_cpus.commit.op_class_0::SimdReduceAdd            0      0.00%     77.18% # Class of committed instruction
system.switch_cpus.commit.op_class_0::SimdReduceAlu            0      0.00%     77.18% # Class of committed instruction
system.switch_cpus.commit.op_class_0::SimdReduceCmp            0      0.00%     77.18% # Class of committed instruction
system.switch_cpus.commit.op_class_0::SimdFloatReduceAdd            0      0.00%     77.18% # Class of committed instruction
system.switch_cpus.commit.op_class_0::SimdFloatReduceCmp            0      0.00%     77.18% # Class of committed instruction
system.switch_cpus.commit.op_class_0::SimdAes            0      0.00%     77.18% # Class of committed instruction
system.switch_cpus.commit.op_class_0::SimdAesMix            0      0.00%     77.18% # Class of committed instruction
system.switch_cpus.commit.op_class_0::SimdSha1Hash            0      0.00%     77.18% # Class of committed instruction
system.switch_cpus.commit.op_class_0::SimdSha1Hash2            0      0.00%     77.18% # Class of committed instruction
system.switch_cpus.commit.op_class_0::SimdSha256Hash            0      0.00%     77.18% # Class of committed instruction
system.switch_cpus.commit.op_class_0::SimdSha256Hash2            0      0.00%     77.18% # Class of committed instruction
system.switch_cpus.commit.op_class_0::SimdShaSigma2            0      0.00%     77.18% # Class of committed instruction
system.switch_cpus.commit.op_class_0::SimdShaSigma3            0      0.00%     77.18% # Class of committed instruction
system.switch_cpus.commit.op_class_0::SimdPredAlu            0      0.00%     77.18% # Class of committed instruction
system.switch_cpus.commit.op_class_0::MemRead      4520346     22.15%     99.33% # Class of committed instruction
system.switch_cpus.commit.op_class_0::MemWrite       137206      0.67%    100.00% # Class of committed instruction
system.switch_cpus.commit.op_class_0::FloatMemRead            0      0.00%    100.00% # Class of committed instruction
system.switch_cpus.commit.op_class_0::FloatMemWrite            0      0.00%    100.00% # Class of committed instruction
system.switch_cpus.commit.op_class_0::IprAccess            0      0.00%    100.00% # Class of committed instruction
system.switch_cpus.commit.op_class_0::InstPrefetch            0      0.00%    100.00% # Class of committed instruction
system.switch_cpus.commit.op_class_0::total     20409927                       # Class of committed instruction
system.switch_cpus.commit.refs                4657552                       # Number of memory references committed
system.switch_cpus.commit.swp_count                 0                       # Number of s/w prefetches committed
system.switch_cpus.commit.vec_insts                 0                       # Number of committed Vector instructions.
system.switch_cpus.committedInsts            10000002                       # Number of Instructions Simulated
system.switch_cpus.committedOps              20409927                       # Number of Ops (including micro ops) Simulated
system.switch_cpus.cpi                       1.224674                       # CPI: Cycles Per Instruction
system.switch_cpus.cpi_total                 1.224674                       # CPI: Total CPI of All Threads
system.switch_cpus.decode.BlockedCycles       8666258                       # Number of cycles decode is blocked
system.switch_cpus.decode.DecodedInsts       20419944                       # Number of instructions handled by decode
system.switch_cpus.decode.IdleCycles           622835                       # Number of cycles decode is idle
system.switch_cpus.decode.RunCycles           2743272                       # Number of cycles decode is running
system.switch_cpus.decode.SquashCycles            251                       # Number of cycles decode is squashing
system.switch_cpus.decode.UnblockCycles        210446                       # Number of cycles decode is unblocking
system.switch_cpus.dtb.rdAccesses             4521747                       # TLB accesses on read requests
system.switch_cpus.dtb.rdMisses                  1702                       # TLB misses on read requests
system.switch_cpus.dtb.wrAccesses              137429                       # TLB accesses on write requests
system.switch_cpus.dtb.wrMisses                     8                       # TLB misses on write requests
system.switch_cpus.fetch.Branches             2603797                       # Number of branches that fetch encountered
system.switch_cpus.fetch.CacheLines            822802                       # Number of cache lines fetched
system.switch_cpus.fetch.Cycles              11418293                       # Number of cycles fetch has run and was not squashing or blocked
system.switch_cpus.fetch.IcacheSquashes            74                       # Number of outstanding Icache misses that were squashed
system.switch_cpus.fetch.Insts               10007690                       # Number of instructions fetch has processed
system.switch_cpus.fetch.MiscStallCycles            4                       # Number of cycles fetch has spent waiting on interrupts, or bad addresses, or out of MSHRs
system.switch_cpus.fetch.PendingTrapStallCycles          341                       # Number of stall cycles due to pending traps
system.switch_cpus.fetch.SquashCycles             502                       # Number of cycles fetch has spent squashing
system.switch_cpus.fetch.branchRate          0.212611                       # Number of branch fetches per cycle
system.switch_cpus.fetch.icacheStallCycles       824193                       # Number of cycles fetch is stalled on an Icache miss
system.switch_cpus.fetch.predictedBranches       411052                       # Number of branches that fetch has predicted taken
system.switch_cpus.fetch.rate                0.817172                       # Number of inst fetches per cycle
system.switch_cpus.fetch.rateDist::samples     12243082                       # Number of instructions fetched each cycle (Total)
system.switch_cpus.fetch.rateDist::mean      1.668094                       # Number of instructions fetched each cycle (Total)
system.switch_cpus.fetch.rateDist::stdev     3.102526                       # Number of instructions fetched each cycle (Total)
system.switch_cpus.fetch.rateDist::underflows            0      0.00%      0.00% # Number of instructions fetched each cycle (Total)
system.switch_cpus.fetch.rateDist::0          9068648     74.07%     74.07% # Number of instructions fetched each cycle (Total)
system.switch_cpus.fetch.rateDist::1           404681      3.31%     77.38% # Number of instructions fetched each cycle (Total)
system.switch_cpus.fetch.rateDist::2             1918      0.02%     77.39% # Number of instructions fetched each cycle (Total)
system.switch_cpus.fetch.rateDist::3           131561      1.07%     78.47% # Number of instructions fetched each cycle (Total)
system.switch_cpus.fetch.rateDist::4           281825      2.30%     80.77% # Number of instructions fetched each cycle (Total)
system.switch_cpus.fetch.rateDist::5            43651      0.36%     81.13% # Number of instructions fetched each cycle (Total)
system.switch_cpus.fetch.rateDist::6             7353      0.06%     81.19% # Number of instructions fetched each cycle (Total)
system.switch_cpus.fetch.rateDist::7           197826      1.62%     82.80% # Number of instructions fetched each cycle (Total)
system.switch_cpus.fetch.rateDist::8          2105619     17.20%    100.00% # Number of instructions fetched each cycle (Total)
system.switch_cpus.fetch.rateDist::overflows            0      0.00%    100.00% # Number of instructions fetched each cycle (Total)
system.switch_cpus.fetch.rateDist::min_value            0                       # Number of instructions fetched each cycle (Total)
system.switch_cpus.fetch.rateDist::max_value            8                       # Number of instructions fetched each cycle (Total)
system.switch_cpus.fetch.rateDist::total     12243082                       # Number of instructions fetched each cycle (Total)
system.switch_cpus.fp_regfile_writes               56                       # number of floating regfile writes
system.switch_cpus.idleCycles                    3656                       # Total number of cycles that the CPU has spent unscheduled due to idling
system.switch_cpus.iew.branchMispredicts          305                       # Number of branch mispredicts detected at execute
system.switch_cpus.iew.exec_branches          2602796                       # Number of branches executed
system.switch_cpus.iew.exec_nop                     0                       # number of nop insts executed
system.switch_cpus.iew.exec_rate             1.666972                       # Inst execution rate
system.switch_cpus.iew.exec_refs              4659214                       # number of memory reference insts executed
system.switch_cpus.iew.exec_stores             137429                       # Number of stores executed
system.switch_cpus.iew.exec_swp                     0                       # number of swp insts executed
system.switch_cpus.iew.iewBlockCycles            1963                       # Number of cycles IEW is blocking
system.switch_cpus.iew.iewDispLoadInsts       4522129                       # Number of dispatched load instructions
system.switch_cpus.iew.iewDispNonSpecInsts            0                       # Number of dispatched non-speculative instructions
system.switch_cpus.iew.iewDispSquashedInsts            0                       # Number of squashed instructions skipped by dispatch
system.switch_cpus.iew.iewDispStoreInsts       137662                       # Number of dispatched store instructions
system.switch_cpus.iew.iewDispatchedInsts     20417448                       # Number of instructions dispatched to IQ
system.switch_cpus.iew.iewExecLoadInsts       4521785                       # Number of load instructions executed
system.switch_cpus.iew.iewExecSquashedInsts          386                       # Number of squashed instructions skipped in execute
system.switch_cpus.iew.iewExecutedInsts      20414975                       # Number of executed instructions
system.switch_cpus.iew.iewIQFullEvents             38                       # Number of times the IQ has become full, causing a stall
system.switch_cpus.iew.iewIdleCycles                0                       # Number of cycles IEW is idle
system.switch_cpus.iew.iewLSQFullEvents        133850                       # Number of times the LSQ has become full, causing a stall
system.switch_cpus.iew.iewSquashCycles            251                       # Number of cycles IEW is squashing
system.switch_cpus.iew.iewUnblockCycles        133881                       # Number of cycles IEW is unblocking
system.switch_cpus.iew.lsq.thread0.blockedLoads            0                       # Number of blocked loads due to partial load-store forwarding
system.switch_cpus.iew.lsq.thread0.cacheBlocked            6                       # Number of times an access to memory failed due to the cache being blocked
system.switch_cpus.iew.lsq.thread0.forwLoads          163                       # Number of loads that had data forwarded from stores
system.switch_cpus.iew.lsq.thread0.ignoredResponses            3                       # Number of memory responses ignored because the instruction is squashed
system.switch_cpus.iew.lsq.thread0.invAddrLoads            0                       # Number of loads ignored due to an invalid address
system.switch_cpus.iew.lsq.thread0.invAddrSwpfs            0                       # Number of software prefetches ignored due to an invalid address
system.switch_cpus.iew.lsq.thread0.memOrderViolation           38                       # Number of memory ordering violations
system.switch_cpus.iew.lsq.thread0.rescheduledLoads            3                       # Number of loads that were rescheduled
system.switch_cpus.iew.lsq.thread0.squashedLoads         1758                       # Number of loads squashed
system.switch_cpus.iew.lsq.thread0.squashedStores          455                       # Number of stores squashed
system.switch_cpus.iew.memOrderViolationEvents           38                       # Number of memory order violations
system.switch_cpus.iew.predictedNotTakenIncorrect          276                       # Number of branches that were predicted not taken incorrectly
system.switch_cpus.iew.predictedTakenIncorrect           29                       # Number of branches that were predicted taken incorrectly
system.switch_cpus.iew.wb_consumers          24625390                       # num instructions consuming a value
system.switch_cpus.iew.wb_count              20414497                       # cumulative count of insts written-back
system.switch_cpus.iew.wb_fanout             0.699999                       # average fanout of values written-back
system.switch_cpus.iew.wb_producers          17237750                       # num instructions producing a value
system.switch_cpus.iew.wb_rate               1.666933                       # insts written-back per cycle
system.switch_cpus.iew.wb_sent               20414604                       # cumulative count of insts sent to commit
system.switch_cpus.int_regfile_reads         36033344                       # number of integer regfile reads
system.switch_cpus.int_regfile_writes        17674286                       # number of integer regfile writes
system.switch_cpus.ipc                       0.816544                       # IPC: Instructions Per Cycle
system.switch_cpus.ipc_total                 0.816544                       # IPC: Total IPC of All Threads
system.switch_cpus.iq.FU_type_0::No_OpClass          151      0.00%      0.00% # Type of FU issued
system.switch_cpus.iq.FU_type_0::IntAlu      15755861     77.18%     77.18% # Type of FU issued
system.switch_cpus.iq.FU_type_0::IntMult            0      0.00%     77.18% # Type of FU issued
system.switch_cpus.iq.FU_type_0::IntDiv             0      0.00%     77.18% # Type of FU issued
system.switch_cpus.iq.FU_type_0::FloatAdd            0      0.00%     77.18% # Type of FU issued
system.switch_cpus.iq.FU_type_0::FloatCmp            0      0.00%     77.18% # Type of FU issued
system.switch_cpus.iq.FU_type_0::FloatCvt            0      0.00%     77.18% # Type of FU issued
system.switch_cpus.iq.FU_type_0::FloatMult            0      0.00%     77.18% # Type of FU issued
system.switch_cpus.iq.FU_type_0::FloatMultAcc            0      0.00%     77.18% # Type of FU issued
system.switch_cpus.iq.FU_type_0::FloatDiv            0      0.00%     77.18% # Type of FU issued
system.switch_cpus.iq.FU_type_0::FloatMisc            0      0.00%     77.18% # Type of FU issued
system.switch_cpus.iq.FU_type_0::FloatSqrt            0      0.00%     77.18% # Type of FU issued
system.switch_cpus.iq.FU_type_0::SimdAdd            0      0.00%     77.18% # Type of FU issued
system.switch_cpus.iq.FU_type_0::SimdAddAcc            0      0.00%     77.18% # Type of FU issued
system.switch_cpus.iq.FU_type_0::SimdAlu            0      0.00%     77.18% # Type of FU issued
system.switch_cpus.iq.FU_type_0::SimdCmp            0      0.00%     77.18% # Type of FU issued
system.switch_cpus.iq.FU_type_0::SimdCvt            0      0.00%     77.18% # Type of FU issued
system.switch_cpus.iq.FU_type_0::SimdMisc            0      0.00%     77.18% # Type of FU issued
system.switch_cpus.iq.FU_type_0::SimdMult            0      0.00%     77.18% # Type of FU issued
system.switch_cpus.iq.FU_type_0::SimdMultAcc            0      0.00%     77.18% # Type of FU issued
system.switch_cpus.iq.FU_type_0::SimdShift            0      0.00%     77.18% # Type of FU issued
system.switch_cpus.iq.FU_type_0::SimdShiftAcc            0      0.00%     77.18% # Type of FU issued
system.switch_cpus.iq.FU_type_0::SimdDiv            0      0.00%     77.18% # Type of FU issued
system.switch_cpus.iq.FU_type_0::SimdSqrt            0      0.00%     77.18% # Type of FU issued
system.switch_cpus.iq.FU_type_0::SimdFloatAdd            0      0.00%     77.18% # Type of FU issued
system.switch_cpus.iq.FU_type_0::SimdFloatAlu            0      0.00%     77.18% # Type of FU issued
system.switch_cpus.iq.FU_type_0::SimdFloatCmp            0      0.00%     77.18% # Type of FU issued
system.switch_cpus.iq.FU_type_0::SimdFloatCvt            0      0.00%     77.18% # Type of FU issued
system.switch_cpus.iq.FU_type_0::SimdFloatDiv            0      0.00%     77.18% # Type of FU issued
system.switch_cpus.iq.FU_type_0::SimdFloatMisc            0      0.00%     77.18% # Type of FU issued
system.switch_cpus.iq.FU_type_0::SimdFloatMult            0      0.00%     77.18% # Type of FU issued
system.switch_cpus.iq.FU_type_0::SimdFloatMultAcc            0      0.00%     77.18% # Type of FU issued
system.switch_cpus.iq.FU_type_0::SimdFloatSqrt            0      0.00%     77.18% # Type of FU issued
system.switch_cpus.iq.FU_type_0::SimdReduceAdd            0      0.00%     77.18% # Type of FU issued
system.switch_cpus.iq.FU_type_0::SimdReduceAlu            0      0.00%     77.18% # Type of FU issued
system.switch_cpus.iq.FU_type_0::SimdReduceCmp            0      0.00%     77.18% # Type of FU issued
system.switch_cpus.iq.FU_type_0::SimdFloatReduceAdd            0      0.00%     77.18% # Type of FU issued
system.switch_cpus.iq.FU_type_0::SimdFloatReduceCmp            0      0.00%     77.18% # Type of FU issued
system.switch_cpus.iq.FU_type_0::SimdAes            0      0.00%     77.18% # Type of FU issued
system.switch_cpus.iq.FU_type_0::SimdAesMix            0      0.00%     77.18% # Type of FU issued
system.switch_cpus.iq.FU_type_0::SimdSha1Hash            0      0.00%     77.18% # Type of FU issued
system.switch_cpus.iq.FU_type_0::SimdSha1Hash2            0      0.00%     77.18% # Type of FU issued
system.switch_cpus.iq.FU_type_0::SimdSha256Hash            0      0.00%     77.18% # Type of FU issued
system.switch_cpus.iq.FU_type_0::SimdSha256Hash2            0      0.00%     77.18% # Type of FU issued
system.switch_cpus.iq.FU_type_0::SimdShaSigma2            0      0.00%     77.18% # Type of FU issued
system.switch_cpus.iq.FU_type_0::SimdShaSigma3            0      0.00%     77.18% # Type of FU issued
system.switch_cpus.iq.FU_type_0::SimdPredAlu            0      0.00%     77.18% # Type of FU issued
system.switch_cpus.iq.FU_type_0::MemRead      4521893     22.15%     99.33% # Type of FU issued
system.switch_cpus.iq.FU_type_0::MemWrite       137460      0.67%    100.00% # Type of FU issued
system.switch_cpus.iq.FU_type_0::FloatMemRead            0      0.00%    100.00% # Type of FU issued
system.switch_cpus.iq.FU_type_0::FloatMemWrite            0      0.00%    100.00% # Type of FU issued
system.switch_cpus.iq.FU_type_0::IprAccess            0      0.00%    100.00% # Type of FU issued
system.switch_cpus.iq.FU_type_0::InstPrefetch            0      0.00%    100.00% # Type of FU issued
system.switch_cpus.iq.FU_type_0::total       20415365                       # Type of FU issued
system.switch_cpus.iq.fp_alu_accesses               0                       # Number of floating point alu accesses
system.switch_cpus.iq.fp_inst_queue_reads            0                       # Number of floating instruction queue reads
system.switch_cpus.iq.fp_inst_queue_wakeup_accesses            0                       # Number of floating instruction queue wakeup accesses
system.switch_cpus.iq.fp_inst_queue_writes            0                       # Number of floating instruction queue writes
system.switch_cpus.iq.fu_busy_cnt              341381                       # FU busy when requested
system.switch_cpus.iq.fu_busy_rate           0.016722                       # FU busy rate (busy events/executed inst)
system.switch_cpus.iq.fu_full::No_OpClass            0      0.00%      0.00% # attempts to use FU when none available
system.switch_cpus.iq.fu_full::IntAlu          341332     99.99%     99.99% # attempts to use FU when none available
system.switch_cpus.iq.fu_full::IntMult              0      0.00%     99.99% # attempts to use FU when none available
system.switch_cpus.iq.fu_full::IntDiv               0      0.00%     99.99% # attempts to use FU when none available
system.switch_cpus.iq.fu_full::FloatAdd             0      0.00%     99.99% # attempts to use FU when none available
system.switch_cpus.iq.fu_full::FloatCmp             0      0.00%     99.99% # attempts to use FU when none available
system.switch_cpus.iq.fu_full::FloatCvt             0      0.00%     99.99% # attempts to use FU when none available
system.switch_cpus.iq.fu_full::FloatMult            0      0.00%     99.99% # attempts to use FU when none available
system.switch_cpus.iq.fu_full::FloatMultAcc            0      0.00%     99.99% # attempts to use FU when none available
system.switch_cpus.iq.fu_full::FloatDiv             0      0.00%     99.99% # attempts to use FU when none available
system.switch_cpus.iq.fu_full::FloatMisc            0      0.00%     99.99% # attempts to use FU when none available
system.switch_cpus.iq.fu_full::FloatSqrt            0      0.00%     99.99% # attempts to use FU when none available
system.switch_cpus.iq.fu_full::SimdAdd              0      0.00%     99.99% # attempts to use FU when none available
system.switch_cpus.iq.fu_full::SimdAddAcc            0      0.00%     99.99% # attempts to use FU when none available
system.switch_cpus.iq.fu_full::SimdAlu              0      0.00%     99.99% # attempts to use FU when none available
system.switch_cpus.iq.fu_full::SimdCmp              0      0.00%     99.99% # attempts to use FU when none available
system.switch_cpus.iq.fu_full::SimdCvt              0      0.00%     99.99% # attempts to use FU when none available
system.switch_cpus.iq.fu_full::SimdMisc             0      0.00%     99.99% # attempts to use FU when none available
system.switch_cpus.iq.fu_full::SimdMult             0      0.00%     99.99% # attempts to use FU when none available
system.switch_cpus.iq.fu_full::SimdMultAcc            0      0.00%     99.99% # attempts to use FU when none available
system.switch_cpus.iq.fu_full::SimdShift            0      0.00%     99.99% # attempts to use FU when none available
system.switch_cpus.iq.fu_full::SimdShiftAcc            0      0.00%     99.99% # attempts to use FU when none available
system.switch_cpus.iq.fu_full::SimdDiv              0      0.00%     99.99% # attempts to use FU when none available
system.switch_cpus.iq.fu_full::SimdSqrt             0      0.00%     99.99% # attempts to use FU when none available
system.switch_cpus.iq.fu_full::SimdFloatAdd            0      0.00%     99.99% # attempts to use FU when none available
system.switch_cpus.iq.fu_full::SimdFloatAlu            0      0.00%     99.99% # attempts to use FU when none available
system.switch_cpus.iq.fu_full::SimdFloatCmp            0      0.00%     99.99% # attempts to use FU when none available
system.switch_cpus.iq.fu_full::SimdFloatCvt            0      0.00%     99.99% # attempts to use FU when none available
system.switch_cpus.iq.fu_full::SimdFloatDiv            0      0.00%     99.99% # attempts to use FU when none available
system.switch_cpus.iq.fu_full::SimdFloatMisc            0      0.00%     99.99% # attempts to use FU when none available
system.switch_cpus.iq.fu_full::SimdFloatMult            0      0.00%     99.99% # attempts to use FU when none available
system.switch_cpus.iq.fu_full::SimdFloatMultAcc            0      0.00%     99.99% # attempts to use FU when none available
system.switch_cpus.iq.fu_full::SimdFloatSqrt            0      0.00%     99.99% # attempts to use FU when none available
system.switch_cpus.iq.fu_full::SimdReduceAdd            0      0.00%     99.99% # attempts to use FU when none available
system.switch_cpus.iq.fu_full::SimdReduceAlu            0      0.00%     99.99% # attempts to use FU when none available
system.switch_cpus.iq.fu_full::SimdReduceCmp            0      0.00%     99.99% # attempts to use FU when none available
system.switch_cpus.iq.fu_full::SimdFloatReduceAdd            0      0.00%     99.99% # attempts to use FU when none available
system.switch_cpus.iq.fu_full::SimdFloatReduceCmp            0      0.00%     99.99% # attempts to use FU when none available
system.switch_cpus.iq.fu_full::SimdAes              0      0.00%     99.99% # attempts to use FU when none available
system.switch_cpus.iq.fu_full::SimdAesMix            0      0.00%     99.99% # attempts to use FU when none available
system.switch_cpus.iq.fu_full::SimdSha1Hash            0      0.00%     99.99% # attempts to use FU when none available
system.switch_cpus.iq.fu_full::SimdSha1Hash2            0      0.00%     99.99% # attempts to use FU when none available
system.switch_cpus.iq.fu_full::SimdSha256Hash            0      0.00%     99.99% # attempts to use FU when none available
system.switch_cpus.iq.fu_full::SimdSha256Hash2            0      0.00%     99.99% # attempts to use FU when none available
system.switch_cpus.iq.fu_full::SimdShaSigma2            0      0.00%     99.99% # attempts to use FU when none available
system.switch_cpus.iq.fu_full::SimdShaSigma3            0      0.00%     99.99% # attempts to use FU when none available
system.switch_cpus.iq.fu_full::SimdPredAlu            0      0.00%     99.99% # attempts to use FU when none available
system.switch_cpus.iq.fu_full::MemRead             22      0.01%     99.99% # attempts to use FU when none available
system.switch_cpus.iq.fu_full::MemWrite            27      0.01%    100.00% # attempts to use FU when none available
system.switch_cpus.iq.fu_full::FloatMemRead            0      0.00%    100.00% # attempts to use FU when none available
system.switch_cpus.iq.fu_full::FloatMemWrite            0      0.00%    100.00% # attempts to use FU when none available
system.switch_cpus.iq.fu_full::IprAccess            0      0.00%    100.00% # attempts to use FU when none available
system.switch_cpus.iq.fu_full::InstPrefetch            0      0.00%    100.00% # attempts to use FU when none available
system.switch_cpus.iq.int_alu_accesses       20756595                       # Number of integer alu accesses
system.switch_cpus.iq.int_inst_queue_reads     53415239                       # Number of integer instruction queue reads
system.switch_cpus.iq.int_inst_queue_wakeup_accesses     20414497                       # Number of integer instruction queue wakeup accesses
system.switch_cpus.iq.int_inst_queue_writes     20424889                       # Number of integer instruction queue writes
system.switch_cpus.iq.iqInstsAdded           20417448                       # Number of instructions added to the IQ (excludes non-spec)
system.switch_cpus.iq.iqInstsIssued          20415365                       # Number of instructions issued
system.switch_cpus.iq.iqSquashedInstsExamined         7403                       # Number of squashed instructions iterated over during squash; mainly for profiling
system.switch_cpus.iq.iqSquashedInstsIssued           50                       # Number of squashed instructions issued
system.switch_cpus.iq.iqSquashedOperandsExamined        10485                       # Number of squashed operands that are examined and possibly removed from graph
system.switch_cpus.iq.issued_per_cycle::samples     12243082                       # Number of insts issued each cycle
system.switch_cpus.iq.issued_per_cycle::mean     1.667502                       # Number of insts issued each cycle
system.switch_cpus.iq.issued_per_cycle::stdev     2.558688                       # Number of insts issued each cycle
system.switch_cpus.iq.issued_per_cycle::underflows            0      0.00%      0.00% # Number of insts issued each cycle
system.switch_cpus.iq.issued_per_cycle::0      7726496     63.11%     63.11% # Number of insts issued each cycle
system.switch_cpus.iq.issued_per_cycle::1       675841      5.52%     68.63% # Number of insts issued each cycle
system.switch_cpus.iq.issued_per_cycle::2       352578      2.88%     71.51% # Number of insts issued each cycle
system.switch_cpus.iq.issued_per_cycle::3       454607      3.71%     75.22% # Number of insts issued each cycle
system.switch_cpus.iq.issued_per_cycle::4       552575      4.51%     79.74% # Number of insts issued each cycle
system.switch_cpus.iq.issued_per_cycle::5       746335      6.10%     85.83% # Number of insts issued each cycle
system.switch_cpus.iq.issued_per_cycle::6       865662      7.07%     92.90% # Number of insts issued each cycle
system.switch_cpus.iq.issued_per_cycle::7       417304      3.41%     96.31% # Number of insts issued each cycle
system.switch_cpus.iq.issued_per_cycle::8       451684      3.69%    100.00% # Number of insts issued each cycle
system.switch_cpus.iq.issued_per_cycle::overflows            0      0.00%    100.00% # Number of insts issued each cycle
system.switch_cpus.iq.issued_per_cycle::min_value            0                       # Number of insts issued each cycle
system.switch_cpus.iq.issued_per_cycle::max_value            8                       # Number of insts issued each cycle
system.switch_cpus.iq.issued_per_cycle::total     12243082                       # Number of insts issued each cycle
system.switch_cpus.iq.rate                   1.667004                       # Inst issue rate
system.switch_cpus.iq.vec_alu_accesses              0                       # Number of vector alu accesses
system.switch_cpus.iq.vec_inst_queue_reads            0                       # Number of vector instruction queue reads
system.switch_cpus.iq.vec_inst_queue_wakeup_accesses            0                       # Number of vector instruction queue wakeup accesses
system.switch_cpus.iq.vec_inst_queue_writes            0                       # Number of vector instruction queue writes
system.switch_cpus.itb.rdAccesses                   0                       # TLB accesses on read requests
system.switch_cpus.itb.rdMisses                     0                       # TLB misses on read requests
system.switch_cpus.itb.wrAccesses              822837                       # TLB accesses on write requests
system.switch_cpus.itb.wrMisses                    39                       # TLB misses on write requests
system.switch_cpus.memDep0.conflictingLoads          129                       # Number of conflicting loads.
system.switch_cpus.memDep0.conflictingStores           38                       # Number of conflicting stores.
system.switch_cpus.memDep0.insertedLoads      4522129                       # Number of loads inserted to the mem dependence unit.
system.switch_cpus.memDep0.insertedStores       137662                       # Number of stores inserted to the mem dependence unit.
system.switch_cpus.misc_regfile_reads         9865172                       # number of misc regfile reads
system.switch_cpus.misc_regfile_writes              1                       # number of misc regfile writes
system.switch_cpus.numCycles                 12246738                       # number of cpu cycles simulated
system.switch_cpus.numWorkItemsCompleted            0                       # number of work items this cpu completed
system.switch_cpus.numWorkItemsStarted              0                       # number of work items this cpu started
system.switch_cpus.rename.BlockCycles          139233                       # Number of cycles rename is blocking
system.switch_cpus.rename.CommittedMaps      23697269                       # Number of HB maps that are committed
system.switch_cpus.rename.IQFullEvents          45485                       # Number of times rename has blocked due to IQ full
system.switch_cpus.rename.IdleCycles           741413                       # Number of cycles rename is idle
system.switch_cpus.rename.LQFullEvents        8438672                       # Number of times rename has blocked due to LQ full
system.switch_cpus.rename.ROBFullEvents           268                       # Number of times rename has blocked due to ROB full
system.switch_cpus.rename.RenameLookups      58925944                       # Number of register rename lookups that rename has made
system.switch_cpus.rename.RenamedInsts       20418928                       # Number of instructions processed by rename
system.switch_cpus.rename.RenamedOperands     23707396                       # Number of destination operands rename has renamed
system.switch_cpus.rename.RunCycles           2834903                       # Number of cycles rename is running
system.switch_cpus.rename.SquashCycles            251                       # Number of cycles rename is squashing
system.switch_cpus.rename.UnblockCycles       8527262                       # Number of cycles rename is unblocking
system.switch_cpus.rename.UndoneMaps             9980                       # Number of HB maps that are undone due to squashing
system.switch_cpus.rename.int_rename_lookups     36041382                       # Number of integer rename lookups
system.switch_cpus.rename.serializeStallCycles            0                       # count of cycles rename stalled for serializing inst
system.switch_cpus.rename.serializingInsts            0                       # count of serializing insts renamed
system.switch_cpus.rename.skidInsts           1258469                       # count of insts added to the skid buffer
system.switch_cpus.rename.tempSerializingInsts            0                       # count of temporary serializing insts renamed
system.switch_cpus.rob.rob_reads             30297439                       # The number of ROB reads
system.switch_cpus.rob.rob_writes            40836121                       # The number of ROB writes
system.switch_cpus.timesIdled                      44                       # Number of times that the entire CPU went into an idle state and unscheduled itself
system.tol2bus.snoop_filter.hit_multi_requests            0                       # Number of requests hitting in the snoop filter with multiple (>1) holders of the requested data.
system.tol2bus.snoop_filter.hit_multi_snoops            0                       # Number of snoops hitting in the snoop filter with multiple (>1) holders of the requested data.
system.tol2bus.snoop_filter.hit_single_requests       101846                       # Number of requests hitting in the snoop filter with a single holder of the requested data.
system.tol2bus.snoop_filter.hit_single_snoops           46                       # Number of snoops hitting in the snoop filter with a single holder of the requested data.
system.tol2bus.snoop_filter.tot_requests       204761                       # Total number of requests made to the snoop filter.
system.tol2bus.snoop_filter.tot_snoops             46                       # Total number of snoops made to the snoop filter.
system.membus.pwrStateResidencyTicks::UNDEFINED 136220509700500                       # Cumulative time (in ticks) in various power states
system.membus.trans_dist::ReadResp              73444                       # Transaction distribution
system.membus.trans_dist::WritebackDirty           42                       # Transaction distribution
system.membus.trans_dist::CleanEvict            65171                       # Transaction distribution
system.membus.trans_dist::ReadExReq                 7                       # Transaction distribution
system.membus.trans_dist::ReadExResp                7                       # Transaction distribution
system.membus.trans_dist::ReadSharedReq         73444                       # Transaction distribution
system.membus.pkt_count_system.l2.mem_side::system.mem_ctrls.port       212115                       # Packet count per connected master and slave (bytes)
system.membus.pkt_count_system.l2.mem_side::total       212115                       # Packet count per connected master and slave (bytes)
system.membus.pkt_count::total                 212115                       # Packet count per connected master and slave (bytes)
system.membus.pkt_size_system.l2.mem_side::system.mem_ctrls.port      4703552                       # Cumulative packet size per connected master and slave (bytes)
system.membus.pkt_size_system.l2.mem_side::total      4703552                       # Cumulative packet size per connected master and slave (bytes)
system.membus.pkt_size::total                 4703552                       # Cumulative packet size per connected master and slave (bytes)
system.membus.snoops                                0                       # Total snoops (count)
system.membus.snoopTraffic                          0                       # Total snoop traffic (bytes)
system.membus.snoop_fanout::samples             73451                       # Request fanout histogram
system.membus.snoop_fanout::mean                    0                       # Request fanout histogram
system.membus.snoop_fanout::stdev                   0                       # Request fanout histogram
system.membus.snoop_fanout::underflows              0      0.00%      0.00% # Request fanout histogram
system.membus.snoop_fanout::0                   73451    100.00%    100.00% # Request fanout histogram
system.membus.snoop_fanout::1                       0      0.00%    100.00% # Request fanout histogram
system.membus.snoop_fanout::overflows               0      0.00%    100.00% # Request fanout histogram
system.membus.snoop_fanout::min_value               0                       # Request fanout histogram
system.membus.snoop_fanout::max_value               0                       # Request fanout histogram
system.membus.snoop_fanout::total               73451                       # Request fanout histogram
system.membus.reqLayer2.occupancy           158906500                       # Layer occupancy (ticks)
system.membus.reqLayer2.utilization               2.6                       # Layer utilization (%)
system.membus.respLayer1.occupancy          390287000                       # Layer occupancy (ticks)
system.membus.respLayer1.utilization              6.4                       # Layer utilization (%)
system.switch_cpus.pwrStateResidencyTicks::OFF   6123379250                       # Cumulative time (in ticks) in various power states
system.switch_cpus.dtb.walker.pwrStateResidencyTicks::UNDEFINED 136220509700500                       # Cumulative time (in ticks) in various power states
system.switch_cpus.itb.walker.pwrStateResidencyTicks::UNDEFINED 136220509700500                       # Cumulative time (in ticks) in various power states
system.tol2bus.pwrStateResidencyTicks::UNDEFINED 136220509700500                       # Cumulative time (in ticks) in various power states
system.tol2bus.trans_dist::ReadResp            102906                       # Transaction distribution
system.tol2bus.trans_dist::WritebackDirty           99                       # Transaction distribution
system.tol2bus.trans_dist::CleanEvict          167006                       # Transaction distribution
system.tol2bus.trans_dist::ReadExReq                9                       # Transaction distribution
system.tol2bus.trans_dist::ReadExResp               9                       # Transaction distribution
system.tol2bus.trans_dist::ReadCleanReq            45                       # Transaction distribution
system.tol2bus.trans_dist::ReadSharedReq       102861                       # Transaction distribution
system.tol2bus.pkt_count_system.cpu.icache.mem_side::system.l2.cpu_side           90                       # Packet count per connected master and slave (bytes)
system.tol2bus.pkt_count_system.cpu.dcache.mem_side::system.l2.cpu_side       307586                       # Packet count per connected master and slave (bytes)
system.tol2bus.pkt_count::total                307676                       # Packet count per connected master and slave (bytes)
system.tol2bus.pkt_size_system.cpu.icache.mem_side::system.l2.cpu_side         2880                       # Cumulative packet size per connected master and slave (bytes)
system.tol2bus.pkt_size_system.cpu.dcache.mem_side::system.l2.cpu_side      6587328                       # Cumulative packet size per connected master and slave (bytes)
system.tol2bus.pkt_size::total                6590208                       # Cumulative packet size per connected master and slave (bytes)
system.tol2bus.snoops                           65259                       # Total snoops (count)
system.tol2bus.snoopTraffic                      2688                       # Total snoop traffic (bytes)
system.tol2bus.snoop_fanout::samples           168174                       # Request fanout histogram
system.tol2bus.snoop_fanout::mean            0.000274                       # Request fanout histogram
system.tol2bus.snoop_fanout::stdev           0.016536                       # Request fanout histogram
system.tol2bus.snoop_fanout::underflows             0      0.00%      0.00% # Request fanout histogram
system.tol2bus.snoop_fanout::0                 168128     99.97%     99.97% # Request fanout histogram
system.tol2bus.snoop_fanout::1                     46      0.03%    100.00% # Request fanout histogram
system.tol2bus.snoop_fanout::2                      0      0.00%    100.00% # Request fanout histogram
system.tol2bus.snoop_fanout::3                      0      0.00%    100.00% # Request fanout histogram
system.tol2bus.snoop_fanout::4                      0      0.00%    100.00% # Request fanout histogram
system.tol2bus.snoop_fanout::overflows              0      0.00%    100.00% # Request fanout histogram
system.tol2bus.snoop_fanout::min_value              0                       # Request fanout histogram
system.tol2bus.snoop_fanout::max_value              1                       # Request fanout histogram
system.tol2bus.snoop_fanout::total             168174                       # Request fanout histogram
system.tol2bus.reqLayer0.occupancy          102434500                       # Layer occupancy (ticks)
system.tol2bus.reqLayer0.utilization              1.7                       # Layer utilization (%)
system.tol2bus.respLayer1.occupancy         154300500                       # Layer occupancy (ticks)
system.tol2bus.respLayer1.utilization             2.5                       # Layer utilization (%)
system.tol2bus.respLayer0.occupancy             63000                       # Layer occupancy (ticks)
system.tol2bus.respLayer0.utilization             0.0                       # Layer utilization (%)
system.voltage_domain.voltage                       1                       # Voltage in Volts
system.clk_domain.clock                          1000                       # Clock period in ticks
system.l2.pwrStateResidencyTicks::UNDEFINED 136220509700500                       # Cumulative time (in ticks) in various power states
system.l2.demand_hits::.switch_cpus.data        29464                       # number of demand (read+write) hits
system.l2.demand_hits::total                    29464                       # number of demand (read+write) hits
system.l2.overall_hits::.switch_cpus.data        29464                       # number of overall hits
system.l2.overall_hits::total                   29464                       # number of overall hits
system.l2.demand_misses::.cpu.inst                  3                       # number of demand (read+write) misses
system.l2.demand_misses::.cpu.data                  3                       # number of demand (read+write) misses
system.l2.demand_misses::.switch_cpus.inst           42                       # number of demand (read+write) misses
system.l2.demand_misses::.switch_cpus.data        73403                       # number of demand (read+write) misses
system.l2.demand_misses::total                  73451                       # number of demand (read+write) misses
system.l2.overall_misses::.cpu.inst                 3                       # number of overall misses
system.l2.overall_misses::.cpu.data                 3                       # number of overall misses
system.l2.overall_misses::.switch_cpus.inst           42                       # number of overall misses
system.l2.overall_misses::.switch_cpus.data        73403                       # number of overall misses
system.l2.overall_misses::total                 73451                       # number of overall misses
system.l2.demand_miss_latency::.switch_cpus.inst      3219000                       # number of demand (read+write) miss cycles
system.l2.demand_miss_latency::.switch_cpus.data   5604375000                       # number of demand (read+write) miss cycles
system.l2.demand_miss_latency::total       5607594000                       # number of demand (read+write) miss cycles
system.l2.overall_miss_latency::.switch_cpus.inst      3219000                       # number of overall miss cycles
system.l2.overall_miss_latency::.switch_cpus.data   5604375000                       # number of overall miss cycles
system.l2.overall_miss_latency::total      5607594000                       # number of overall miss cycles
system.l2.demand_accesses::.cpu.inst                3                       # number of demand (read+write) accesses
system.l2.demand_accesses::.cpu.data                3                       # number of demand (read+write) accesses
system.l2.demand_accesses::.switch_cpus.inst           42                       # number of demand (read+write) accesses
system.l2.demand_accesses::.switch_cpus.data       102867                       # number of demand (read+write) accesses
system.l2.demand_accesses::total               102915                       # number of demand (read+write) accesses
system.l2.overall_accesses::.cpu.inst               3                       # number of overall (read+write) accesses
system.l2.overall_accesses::.cpu.data               3                       # number of overall (read+write) accesses
system.l2.overall_accesses::.switch_cpus.inst           42                       # number of overall (read+write) accesses
system.l2.overall_accesses::.switch_cpus.data       102867                       # number of overall (read+write) accesses
system.l2.overall_accesses::total              102915                       # number of overall (read+write) accesses
system.l2.demand_miss_rate::.cpu.inst               1                       # miss rate for demand accesses
system.l2.demand_miss_rate::.cpu.data               1                       # miss rate for demand accesses
system.l2.demand_miss_rate::.switch_cpus.inst            1                       # miss rate for demand accesses
system.l2.demand_miss_rate::.switch_cpus.data     0.713572                       # miss rate for demand accesses
system.l2.demand_miss_rate::total            0.713705                       # miss rate for demand accesses
system.l2.overall_miss_rate::.cpu.inst              1                       # miss rate for overall accesses
system.l2.overall_miss_rate::.cpu.data              1                       # miss rate for overall accesses
system.l2.overall_miss_rate::.switch_cpus.inst            1                       # miss rate for overall accesses
system.l2.overall_miss_rate::.switch_cpus.data     0.713572                       # miss rate for overall accesses
system.l2.overall_miss_rate::total           0.713705                       # miss rate for overall accesses
system.l2.demand_avg_miss_latency::.switch_cpus.inst 76642.857143                       # average overall miss latency
system.l2.demand_avg_miss_latency::.switch_cpus.data 76350.762230                       # average overall miss latency
system.l2.demand_avg_miss_latency::total 76344.692380                       # average overall miss latency
system.l2.overall_avg_miss_latency::.switch_cpus.inst 76642.857143                       # average overall miss latency
system.l2.overall_avg_miss_latency::.switch_cpus.data 76350.762230                       # average overall miss latency
system.l2.overall_avg_miss_latency::total 76344.692380                       # average overall miss latency
system.l2.blocked_cycles::no_mshrs                  0                       # number of cycles access was blocked
system.l2.blocked_cycles::no_targets                0                       # number of cycles access was blocked
system.l2.blocked::no_mshrs                         0                       # number of cycles access was blocked
system.l2.blocked::no_targets                       0                       # number of cycles access was blocked
system.l2.avg_blocked_cycles::no_mshrs            nan                       # average number of cycles each access was blocked
system.l2.avg_blocked_cycles::no_targets          nan                       # average number of cycles each access was blocked
system.l2.writebacks::.writebacks                  42                       # number of writebacks
system.l2.writebacks::total                        42                       # number of writebacks
system.l2.demand_mshr_misses::.switch_cpus.inst           42                       # number of demand (read+write) MSHR misses
system.l2.demand_mshr_misses::.switch_cpus.data        73403                       # number of demand (read+write) MSHR misses
system.l2.demand_mshr_misses::total             73445                       # number of demand (read+write) MSHR misses
system.l2.overall_mshr_misses::.switch_cpus.inst           42                       # number of overall MSHR misses
system.l2.overall_mshr_misses::.switch_cpus.data        73403                       # number of overall MSHR misses
system.l2.overall_mshr_misses::total            73445                       # number of overall MSHR misses
system.l2.demand_mshr_miss_latency::.switch_cpus.inst      2799000                       # number of demand (read+write) MSHR miss cycles
system.l2.demand_mshr_miss_latency::.switch_cpus.data   4870345000                       # number of demand (read+write) MSHR miss cycles
system.l2.demand_mshr_miss_latency::total   4873144000                       # number of demand (read+write) MSHR miss cycles
system.l2.overall_mshr_miss_latency::.switch_cpus.inst      2799000                       # number of overall MSHR miss cycles
system.l2.overall_mshr_miss_latency::.switch_cpus.data   4870345000                       # number of overall MSHR miss cycles
system.l2.overall_mshr_miss_latency::total   4873144000                       # number of overall MSHR miss cycles
system.l2.demand_mshr_miss_rate::.switch_cpus.inst            1                       # mshr miss rate for demand accesses
system.l2.demand_mshr_miss_rate::.switch_cpus.data     0.713572                       # mshr miss rate for demand accesses
system.l2.demand_mshr_miss_rate::total       0.713647                       # mshr miss rate for demand accesses
system.l2.overall_mshr_miss_rate::.switch_cpus.inst            1                       # mshr miss rate for overall accesses
system.l2.overall_mshr_miss_rate::.switch_cpus.data     0.713572                       # mshr miss rate for overall accesses
system.l2.overall_mshr_miss_rate::total      0.713647                       # mshr miss rate for overall accesses
system.l2.demand_avg_mshr_miss_latency::.switch_cpus.inst 66642.857143                       # average overall mshr miss latency
system.l2.demand_avg_mshr_miss_latency::.switch_cpus.data 66350.762230                       # average overall mshr miss latency
system.l2.demand_avg_mshr_miss_latency::total 66350.929267                       # average overall mshr miss latency
system.l2.overall_avg_mshr_miss_latency::.switch_cpus.inst 66642.857143                       # average overall mshr miss latency
system.l2.overall_avg_mshr_miss_latency::.switch_cpus.data 66350.762230                       # average overall mshr miss latency
system.l2.overall_avg_mshr_miss_latency::total 66350.929267                       # average overall mshr miss latency
system.l2.replacements                          65259                       # number of replacements
system.l2.WritebackDirty_hits::.writebacks           57                       # number of WritebackDirty hits
system.l2.WritebackDirty_hits::total               57                       # number of WritebackDirty hits
system.l2.WritebackDirty_accesses::.writebacks           57                       # number of WritebackDirty accesses(hits+misses)
system.l2.WritebackDirty_accesses::total           57                       # number of WritebackDirty accesses(hits+misses)
system.l2.ReadExReq_hits::.switch_cpus.data            2                       # number of ReadExReq hits
system.l2.ReadExReq_hits::total                     2                       # number of ReadExReq hits
system.l2.ReadExReq_misses::.switch_cpus.data            7                       # number of ReadExReq misses
system.l2.ReadExReq_misses::total                   7                       # number of ReadExReq misses
system.l2.ReadExReq_miss_latency::.switch_cpus.data       391000                       # number of ReadExReq miss cycles
system.l2.ReadExReq_miss_latency::total        391000                       # number of ReadExReq miss cycles
system.l2.ReadExReq_accesses::.switch_cpus.data            9                       # number of ReadExReq accesses(hits+misses)
system.l2.ReadExReq_accesses::total                 9                       # number of ReadExReq accesses(hits+misses)
system.l2.ReadExReq_miss_rate::.switch_cpus.data     0.777778                       # miss rate for ReadExReq accesses
system.l2.ReadExReq_miss_rate::total         0.777778                       # miss rate for ReadExReq accesses
system.l2.ReadExReq_avg_miss_latency::.switch_cpus.data 55857.142857                       # average ReadExReq miss latency
system.l2.ReadExReq_avg_miss_latency::total 55857.142857                       # average ReadExReq miss latency
system.l2.ReadExReq_mshr_misses::.switch_cpus.data            7                       # number of ReadExReq MSHR misses
system.l2.ReadExReq_mshr_misses::total              7                       # number of ReadExReq MSHR misses
system.l2.ReadExReq_mshr_miss_latency::.switch_cpus.data       321000                       # number of ReadExReq MSHR miss cycles
system.l2.ReadExReq_mshr_miss_latency::total       321000                       # number of ReadExReq MSHR miss cycles
system.l2.ReadExReq_mshr_miss_rate::.switch_cpus.data     0.777778                       # mshr miss rate for ReadExReq accesses
system.l2.ReadExReq_mshr_miss_rate::total     0.777778                       # mshr miss rate for ReadExReq accesses
system.l2.ReadExReq_avg_mshr_miss_latency::.switch_cpus.data 45857.142857                       # average ReadExReq mshr miss latency
system.l2.ReadExReq_avg_mshr_miss_latency::total 45857.142857                       # average ReadExReq mshr miss latency
system.l2.ReadCleanReq_misses::.cpu.inst            3                       # number of ReadCleanReq misses
system.l2.ReadCleanReq_misses::.switch_cpus.inst           42                       # number of ReadCleanReq misses
system.l2.ReadCleanReq_misses::total               45                       # number of ReadCleanReq misses
system.l2.ReadCleanReq_miss_latency::.switch_cpus.inst      3219000                       # number of ReadCleanReq miss cycles
system.l2.ReadCleanReq_miss_latency::total      3219000                       # number of ReadCleanReq miss cycles
system.l2.ReadCleanReq_accesses::.cpu.inst            3                       # number of ReadCleanReq accesses(hits+misses)
system.l2.ReadCleanReq_accesses::.switch_cpus.inst           42                       # number of ReadCleanReq accesses(hits+misses)
system.l2.ReadCleanReq_accesses::total             45                       # number of ReadCleanReq accesses(hits+misses)
system.l2.ReadCleanReq_miss_rate::.cpu.inst            1                       # miss rate for ReadCleanReq accesses
system.l2.ReadCleanReq_miss_rate::.switch_cpus.inst            1                       # miss rate for ReadCleanReq accesses
system.l2.ReadCleanReq_miss_rate::total             1                       # miss rate for ReadCleanReq accesses
system.l2.ReadCleanReq_avg_miss_latency::.switch_cpus.inst 76642.857143                       # average ReadCleanReq miss latency
system.l2.ReadCleanReq_avg_miss_latency::total 71533.333333                       # average ReadCleanReq miss latency
system.l2.ReadCleanReq_mshr_misses::.switch_cpus.inst           42                       # number of ReadCleanReq MSHR misses
system.l2.ReadCleanReq_mshr_misses::total           42                       # number of ReadCleanReq MSHR misses
system.l2.ReadCleanReq_mshr_miss_latency::.switch_cpus.inst      2799000                       # number of ReadCleanReq MSHR miss cycles
system.l2.ReadCleanReq_mshr_miss_latency::total      2799000                       # number of ReadCleanReq MSHR miss cycles
system.l2.ReadCleanReq_mshr_miss_rate::.switch_cpus.inst            1                       # mshr miss rate for ReadCleanReq accesses
system.l2.ReadCleanReq_mshr_miss_rate::total     0.933333                       # mshr miss rate for ReadCleanReq accesses
system.l2.ReadCleanReq_avg_mshr_miss_latency::.switch_cpus.inst 66642.857143                       # average ReadCleanReq mshr miss latency
system.l2.ReadCleanReq_avg_mshr_miss_latency::total 66642.857143                       # average ReadCleanReq mshr miss latency
system.l2.ReadSharedReq_hits::.switch_cpus.data        29462                       # number of ReadSharedReq hits
system.l2.ReadSharedReq_hits::total             29462                       # number of ReadSharedReq hits
system.l2.ReadSharedReq_misses::.cpu.data            3                       # number of ReadSharedReq misses
system.l2.ReadSharedReq_misses::.switch_cpus.data        73396                       # number of ReadSharedReq misses
system.l2.ReadSharedReq_misses::total           73399                       # number of ReadSharedReq misses
system.l2.ReadSharedReq_miss_latency::.switch_cpus.data   5603984000                       # number of ReadSharedReq miss cycles
system.l2.ReadSharedReq_miss_latency::total   5603984000                       # number of ReadSharedReq miss cycles
system.l2.ReadSharedReq_accesses::.cpu.data            3                       # number of ReadSharedReq accesses(hits+misses)
[...]
system.cpu.icache.tags.occ_task_id_percent::1024     0.095703                       # Percentage of cache occupancy per task id
system.cpu.icache.tags.tag_accesses           6581237                       # Number of tag accesses
system.cpu.icache.tags.data_accesses          6581237                       # Number of data accesses
system.cpu.dtb.walker.pwrStateResidencyTicks::UNDEFINED 136241647365500                       # Cumulative time (in ticks) in various power states
system.cpu.interrupts.clk_domain.clock           8000                       # Clock period in ticks
system.cpu.itb_walker_cache.pwrStateResidencyTicks::UNDEFINED 136241647365500                       # Cumulative time (in ticks) in various power states
system.cpu.itb_walker_cache.blocked_cycles::no_mshrs            0                       # number of cycles access was blocked
system.cpu.itb_walker_cache.blocked_cycles::no_targets            0                       # number of cycles access was blocked
system.cpu.itb_walker_cache.blocked::no_mshrs            0                       # number of cycles access was blocked
system.cpu.itb_walker_cache.blocked::no_targets            0                       # number of cycles access was blocked
system.cpu.itb_walker_cache.avg_blocked_cycles::no_mshrs          nan                       # average number of cycles each access was blocked
system.cpu.itb_walker_cache.avg_blocked_cycles::no_targets          nan                       # average number of cycles each access was blocked
system.cpu.itb_walker_cache.replacements            0                       # number of replacements
system.cpu.itb_walker_cache.tags.pwrStateResidencyTicks::UNDEFINED 136241647365500                       # Cumulative time (in ticks) in various power states
system.cpu.itb_walker_cache.tags.tagsinuse            0                       # Cycle average of tags in use
system.cpu.itb_walker_cache.tags.total_refs            0                       # Total number of references to valid blocks.
system.cpu.itb_walker_cache.tags.sampled_refs            0                       # Sample count of references to valid blocks.
system.cpu.itb_walker_cache.tags.avg_refs          nan                       # Average number of references to valid blocks.
system.cpu.itb_walker_cache.tags.warmup_cycle            0                       # Cycle when the warmup percentage was hit.
system.cpu.itb_walker_cache.tags.tag_accesses            0                       # Number of tag accesses
system.cpu.itb_walker_cache.tags.data_accesses            0                       # Number of data accesses
system.cpu.itb.walker.pwrStateResidencyTicks::UNDEFINED 136241647365500                       # Cumulative time (in ticks) in various power states
system.cpu.dtb_walker_cache.pwrStateResidencyTicks::UNDEFINED 136241647365500                       # Cumulative time (in ticks) in various power states
system.cpu.dtb_walker_cache.blocked_cycles::no_mshrs            0                       # number of cycles access was blocked
system.cpu.dtb_walker_cache.blocked_cycles::no_targets            0                       # number of cycles access was blocked
system.cpu.dtb_walker_cache.blocked::no_mshrs            0                       # number of cycles access was blocked
system.cpu.dtb_walker_cache.blocked::no_targets            0                       # number of cycles access was blocked
system.cpu.dtb_walker_cache.avg_blocked_cycles::no_mshrs          nan                       # average number of cycles each access was blocked
system.cpu.dtb_walker_cache.avg_blocked_cycles::no_targets          nan                       # average number of cycles each access was blocked
system.cpu.dtb_walker_cache.replacements            0                       # number of replacements
system.cpu.dtb_walker_cache.tags.pwrStateResidencyTicks::UNDEFINED 136241647365500                       # Cumulative time (in ticks) in various power states
system.cpu.dtb_walker_cache.tags.tagsinuse            0                       # Cycle average of tags in use
system.cpu.dtb_walker_cache.tags.total_refs            0                       # Total number of references to valid blocks.
system.cpu.dtb_walker_cache.tags.sampled_refs            0                       # Sample count of references to valid blocks.
system.cpu.dtb_walker_cache.tags.avg_refs          nan                       # Average number of references to valid blocks.
system.cpu.dtb_walker_cache.tags.warmup_cycle            0                       # Cycle when the warmup percentage was hit.
system.cpu.dtb_walker_cache.tags.tag_accesses            0                       # Number of tag accesses
system.cpu.dtb_walker_cache.tags.data_accesses            0                       # Number of data accesses
system.cpu.dcache.pwrStateResidencyTicks::UNDEFINED 136241647365500                       # Cumulative time (in ticks) in various power states
system.cpu.dcache.demand_hits::.switch_cpus.data     15596543                       # number of demand (read+write) hits
system.cpu.dcache.demand_hits::total         15596543                       # number of demand (read+write) hits
system.cpu.dcache.overall_hits::.switch_cpus.data     15596543                       # number of overall hits
system.cpu.dcache.overall_hits::total        15596543                       # number of overall hits
system.cpu.dcache.demand_misses::.cpu.data            3                       # number of demand (read+write) misses
system.cpu.dcache.demand_misses::.switch_cpus.data      3037303                       # number of demand (read+write) misses
system.cpu.dcache.demand_misses::total        3037306                       # number of demand (read+write) misses
system.cpu.dcache.overall_misses::.cpu.data            3                       # number of overall misses
system.cpu.dcache.overall_misses::.switch_cpus.data      3037303                       # number of overall misses
system.cpu.dcache.overall_misses::total       3037306                       # number of overall misses
system.cpu.dcache.demand_miss_latency::.switch_cpus.data 174433825000                       # number of demand (read+write) miss cycles
system.cpu.dcache.demand_miss_latency::total 174433825000                       # number of demand (read+write) miss cycles
system.cpu.dcache.overall_miss_latency::.switch_cpus.data 174433825000                       # number of overall miss cycles
system.cpu.dcache.overall_miss_latency::total 174433825000                       # number of overall miss cycles
system.cpu.dcache.demand_accesses::.cpu.data            3                       # number of demand (read+write) accesses
system.cpu.dcache.demand_accesses::.switch_cpus.data     18633846                       # number of demand (read+write) accesses
system.cpu.dcache.demand_accesses::total     18633849                       # number of demand (read+write) accesses
system.cpu.dcache.overall_accesses::.cpu.data            3                       # number of overall (read+write) accesses
system.cpu.dcache.overall_accesses::.switch_cpus.data     18633846                       # number of overall (read+write) accesses
system.cpu.dcache.overall_accesses::total     18633849                       # number of overall (read+write) accesses
system.cpu.dcache.demand_miss_rate::.cpu.data            1                       # miss rate for demand accesses
system.cpu.dcache.demand_miss_rate::.switch_cpus.data     0.162999                       # miss rate for demand accesses
system.cpu.dcache.demand_miss_rate::total     0.162999                       # miss rate for demand accesses
system.cpu.dcache.overall_miss_rate::.cpu.data            1                       # miss rate for overall accesses
system.cpu.dcache.overall_miss_rate::.switch_cpus.data     0.162999                       # miss rate for overall accesses
system.cpu.dcache.overall_miss_rate::total     0.162999                       # miss rate for overall accesses
system.cpu.dcache.demand_avg_miss_latency::.switch_cpus.data 57430.498373                       # average overall miss latency
system.cpu.dcache.demand_avg_miss_latency::total 57430.441648                       # average overall miss latency
system.cpu.dcache.overall_avg_miss_latency::.switch_cpus.data 57430.498373                       # average overall miss latency
system.cpu.dcache.overall_avg_miss_latency::total 57430.441648                       # average overall miss latency
system.cpu.dcache.blocked_cycles::no_mshrs         2780                       # number of cycles access was blocked
system.cpu.dcache.blocked_cycles::no_targets            0                       # number of cycles access was blocked
system.cpu.dcache.blocked::no_mshrs                61                       # number of cycles access was blocked
system.cpu.dcache.blocked::no_targets               0                       # number of cycles access was blocked
system.cpu.dcache.avg_blocked_cycles::no_mshrs    45.573770                       # average number of cycles each access was blocked
system.cpu.dcache.avg_blocked_cycles::no_targets          nan                       # average number of cycles each access was blocked
system.cpu.dcache.writebacks::.writebacks          215                       # number of writebacks
system.cpu.dcache.writebacks::total               215                       # number of writebacks
system.cpu.dcache.demand_mshr_hits::.switch_cpus.data      2626219                       # number of demand (read+write) MSHR hits
system.cpu.dcache.demand_mshr_hits::total      2626219                       # number of demand (read+write) MSHR hits
system.cpu.dcache.overall_mshr_hits::.switch_cpus.data      2626219                       # number of overall MSHR hits
system.cpu.dcache.overall_mshr_hits::total      2626219                       # number of overall MSHR hits
system.cpu.dcache.demand_mshr_misses::.switch_cpus.data       411084                       # number of demand (read+write) MSHR misses
system.cpu.dcache.demand_mshr_misses::total       411084                       # number of demand (read+write) MSHR misses
system.cpu.dcache.overall_mshr_misses::.switch_cpus.data       411084                       # number of overall MSHR misses
system.cpu.dcache.overall_mshr_misses::total       411084                       # number of overall MSHR misses
system.cpu.dcache.demand_mshr_miss_latency::.switch_cpus.data  27424780500                       # number of demand (read+write) MSHR miss cycles
system.cpu.dcache.demand_mshr_miss_latency::total  27424780500                       # number of demand (read+write) MSHR miss cycles
system.cpu.dcache.overall_mshr_miss_latency::.switch_cpus.data  27424780500                       # number of overall MSHR miss cycles
system.cpu.dcache.overall_mshr_miss_latency::total  27424780500                       # number of overall MSHR miss cycles
system.cpu.dcache.demand_mshr_miss_rate::.switch_cpus.data     0.022061                       # mshr miss rate for demand accesses
system.cpu.dcache.demand_mshr_miss_rate::total     0.022061                       # mshr miss rate for demand accesses
system.cpu.dcache.overall_mshr_miss_rate::.switch_cpus.data     0.022061                       # mshr miss rate for overall accesses
system.cpu.dcache.overall_mshr_miss_rate::total     0.022061                       # mshr miss rate for overall accesses
system.cpu.dcache.demand_avg_mshr_miss_latency::.switch_cpus.data 66713.325014                       # average overall mshr miss latency
system.cpu.dcache.demand_avg_mshr_miss_latency::total 66713.325014                       # average overall mshr miss latency
system.cpu.dcache.overall_avg_mshr_miss_latency::.switch_cpus.data 66713.325014                       # average overall mshr miss latency
system.cpu.dcache.overall_avg_mshr_miss_latency::total 66713.325014                       # average overall mshr miss latency
system.cpu.dcache.replacements                 410062                       # number of replacements
system.cpu.dcache.ReadReq_hits::.switch_cpus.data     15047901                       # number of ReadReq hits
system.cpu.dcache.ReadReq_hits::total        15047901                       # number of ReadReq hits
system.cpu.dcache.ReadReq_misses::.cpu.data            3                       # number of ReadReq misses
system.cpu.dcache.ReadReq_misses::.switch_cpus.data      3037249                       # number of ReadReq misses
system.cpu.dcache.ReadReq_misses::total       3037252                       # number of ReadReq misses
system.cpu.dcache.ReadReq_miss_latency::.switch_cpus.data 174431653500                       # number of ReadReq miss cycles
system.cpu.dcache.ReadReq_miss_latency::total 174431653500                       # number of ReadReq miss cycles
system.cpu.dcache.ReadReq_accesses::.cpu.data            3                       # number of ReadReq accesses(hits+misses)
system.cpu.dcache.ReadReq_accesses::.switch_cpus.data     18085150                       # number of ReadReq accesses(hits+misses)
system.cpu.dcache.ReadReq_accesses::total     18085153                       # number of ReadReq accesses(hits+misses)
system.cpu.dcache.ReadReq_miss_rate::.cpu.data            1                       # miss rate for ReadReq accesses
system.cpu.dcache.ReadReq_miss_rate::.switch_cpus.data     0.167942                       # miss rate for ReadReq accesses
system.cpu.dcache.ReadReq_miss_rate::total     0.167942                       # miss rate for ReadReq accesses
system.cpu.dcache.ReadReq_avg_miss_latency::.switch_cpus.data 57430.804488                       # average ReadReq miss latency
system.cpu.dcache.ReadReq_avg_miss_latency::total 57430.747761                       # average ReadReq miss latency
system.cpu.dcache.ReadReq_mshr_hits::.switch_cpus.data      2626201                       # number of ReadReq MSHR hits
system.cpu.dcache.ReadReq_mshr_hits::total      2626201                       # number of ReadReq MSHR hits
system.cpu.dcache.ReadReq_mshr_misses::.switch_cpus.data       411048                       # number of ReadReq MSHR misses
system.cpu.dcache.ReadReq_mshr_misses::total       411048                       # number of ReadReq MSHR misses
system.cpu.dcache.ReadReq_mshr_miss_latency::.switch_cpus.data  27423212500                       # number of ReadReq MSHR miss cycles
system.cpu.dcache.ReadReq_mshr_miss_latency::total  27423212500                       # number of ReadReq MSHR miss cycles
system.cpu.dcache.ReadReq_mshr_miss_rate::.switch_cpus.data     0.022728                       # mshr miss rate for ReadReq accesses
system.cpu.dcache.ReadReq_mshr_miss_rate::total     0.022728                       # mshr miss rate for ReadReq accesses
system.cpu.dcache.ReadReq_avg_mshr_miss_latency::.switch_cpus.data 66715.353195                       # average ReadReq mshr miss latency
system.cpu.dcache.ReadReq_avg_mshr_miss_latency::total 66715.353195                       # average ReadReq mshr miss latency
system.cpu.dcache.WriteReq_hits::.switch_cpus.data       548642                       # number of WriteReq hits
system.cpu.dcache.WriteReq_hits::total         548642                       # number of WriteReq hits
system.cpu.dcache.WriteReq_misses::.switch_cpus.data           54                       # number of WriteReq misses
system.cpu.dcache.WriteReq_misses::total           54                       # number of WriteReq misses
system.cpu.dcache.WriteReq_miss_latency::.switch_cpus.data      2171500                       # number of WriteReq miss cycles
system.cpu.dcache.WriteReq_miss_latency::total      2171500                       # number of WriteReq miss cycles
system.cpu.dcache.WriteReq_accesses::.switch_cpus.data       548696                       # number of WriteReq accesses(hits+misses)
system.cpu.dcache.WriteReq_accesses::total       548696                       # number of WriteReq accesses(hits+misses)
system.cpu.dcache.WriteReq_miss_rate::.switch_cpus.data     0.000098                       # miss rate for WriteReq accesses
system.cpu.dcache.WriteReq_miss_rate::total     0.000098                       # miss rate for WriteReq accesses
system.cpu.dcache.WriteReq_avg_miss_latency::.switch_cpus.data 40212.962963                       # average WriteReq miss latency
system.cpu.dcache.WriteReq_avg_miss_latency::total 40212.962963                       # average WriteReq miss latency
system.cpu.dcache.WriteReq_mshr_hits::.switch_cpus.data           18                       # number of WriteReq MSHR hits
system.cpu.dcache.WriteReq_mshr_hits::total           18                       # number of WriteReq MSHR hits
system.cpu.dcache.WriteReq_mshr_misses::.switch_cpus.data           36                       # number of WriteReq MSHR misses
system.cpu.dcache.WriteReq_mshr_misses::total           36                       # number of WriteReq MSHR misses
system.cpu.dcache.WriteReq_mshr_miss_latency::.switch_cpus.data      1568000                       # number of WriteReq MSHR miss cycles
system.cpu.dcache.WriteReq_mshr_miss_latency::total      1568000                       # number of WriteReq MSHR miss cycles
system.cpu.dcache.WriteReq_mshr_miss_rate::.switch_cpus.data     0.000066                       # mshr miss rate for WriteReq accesses
system.cpu.dcache.WriteReq_mshr_miss_rate::total     0.000066                       # mshr miss rate for WriteReq accesses
system.cpu.dcache.WriteReq_avg_mshr_miss_latency::.switch_cpus.data 43555.555556                       # average WriteReq mshr miss latency
system.cpu.dcache.WriteReq_avg_mshr_miss_latency::total 43555.555556                       # average WriteReq mshr miss latency
system.cpu.dcache.tags.pwrStateResidencyTicks::UNDEFINED 136241647365500                       # Cumulative time (in ticks) in various power states
system.cpu.dcache.tags.tagsinuse             0.204550                       # Cycle average of tags in use
system.cpu.dcache.tags.total_refs            16007629                       # Total number of references to valid blocks.
system.cpu.dcache.tags.sampled_refs            411086                       # Sample count of references to valid blocks.
system.cpu.dcache.tags.avg_refs             38.939854                       # Average number of references to valid blocks.
system.cpu.dcache.tags.warmup_cycle      136214386326500                       # Cycle when the warmup percentage was hit.
system.cpu.dcache.tags.occ_blocks::.cpu.data     0.000002                       # Average occupied blocks per requestor
system.cpu.dcache.tags.occ_blocks::.switch_cpus.data     0.204548                       # Average occupied blocks per requestor
system.cpu.dcache.tags.occ_percent::.cpu.data     0.000000                       # Average percentage of cache occupancy
system.cpu.dcache.tags.occ_percent::.switch_cpus.data     0.000200                       # Average percentage of cache occupancy
system.cpu.dcache.tags.occ_percent::total     0.000200                       # Average percentage of cache occupancy
system.cpu.dcache.tags.occ_task_id_blocks::1024         1024                       # Occupied blocks per task id
system.cpu.dcache.tags.age_task_id_blocks_1024::0          127                       # Occupied blocks per task id
system.cpu.dcache.tags.age_task_id_blocks_1024::1          868                       # Occupied blocks per task id
system.cpu.dcache.tags.age_task_id_blocks_1024::2           28                       # Occupied blocks per task id
system.cpu.dcache.tags.age_task_id_blocks_1024::4            1                       # Occupied blocks per task id
system.cpu.dcache.tags.occ_task_id_percent::1024            1                       # Percentage of cache occupancy per task id
system.cpu.dcache.tags.tag_accesses          37678784                       # Number of tag accesses
system.cpu.dcache.tags.data_accesses         37678784                       # Number of data accesses

---------- End Simulation Statistics   ----------
