
---------- Begin Simulation Statistics ----------
final_tick                               270776427409000                       # Number of ticks from beginning of simulation (restored from checkpoints and never reset)
host_inst_rate                                  45937                       # Simulator instruction rate (inst/s)
host_mem_usage                                 804440                       # Number of bytes of host memory used
host_op_rate                                    76713                       # Simulator op (including micro ops) rate (op/s)
host_seconds                                   217.69                       # Real time elapsed on the host
host_tick_rate                               42020342                       # Simulator tick rate (ticks/s)
sim_freq                                 1000000000000                       # Frequency of simulated ticks
sim_insts                                    10000010                       # Number of instructions simulated
sim_ops                                      16699646                       # Number of ops (including micro ops) simulated
sim_seconds                                  0.009147                       # Number of seconds simulated
sim_ticks                                  9147355250                       # Number of ticks simulated
system.cpu.Branches                                 1                       # Number of branches fetched
system.cpu.committedInsts                           7                       # Number of instructions committed
system.cpu.committedOps                            18                       # Number of ops (including micro ops) committed
system.cpu.dtb.rdAccesses                           5                       # TLB accesses on read requests
system.cpu.dtb.rdMisses                             0                       # TLB misses on read requests
system.cpu.dtb.wrAccesses                           1                       # TLB accesses on write requests
system.cpu.dtb.wrMisses                             0                       # TLB misses on write requests
system.cpu.idle_fraction                            0                       # Percentage of idle cycles
system.cpu.itb.rdAccesses                           0                       # TLB accesses on read requests
system.cpu.itb.rdMisses                             0                       # TLB misses on read requests
system.cpu.itb.wrAccesses                           9                       # TLB accesses on write requests
system.cpu.itb.wrMisses                             0                       # TLB misses on write requests
system.cpu.not_idle_fraction                        1                       # Percentage of non-idle cycles
system.cpu.numCycles                               20                       # number of cpu cycles simulated
system.cpu.numWorkItemsCompleted                    0                       # number of work items this cpu completed
system.cpu.numWorkItemsStarted                      0                       # number of work items this cpu started
system.cpu.num_busy_cycles                         20                       # Number of busy cycles
system.cpu.num_cc_register_writes                   2                       # number of times the CC registers were written
system.cpu.num_conditional_control_insts            0                       # number of instructions that are conditional controls
system.cpu.num_fp_alu_accesses                      0                       # Number of float alu accesses
system.cpu.num_fp_insts                             0                       # number of float instructions
system.cpu.num_fp_register_reads                    0                       # number of times the floating registers were read
system.cpu.num_fp_register_writes                   0                       # number of times the floating registers were written
system.cpu.num_func_calls                           1                       # number of times a function call or return occured
system.cpu.num_idle_cycles                          0                       # Number of idle cycles
system.cpu.num_int_alu_accesses                    18                       # Number of integer alu accesses
system.cpu.num_int_insts                           18                       # number of integer instructions
system.cpu.num_int_register_reads                  40                       # number of times the integer registers were read
system.cpu.num_int_register_writes                 16                       # number of times the integer registers were written
system.cpu.num_load_insts                           5                       # Number of load instructions
system.cpu.num_mem_refs                             6                       # number of memory refs
system.cpu.num_store_insts                          1                       # Number of store instructions
system.cpu.num_vec_alu_accesses                     0                       # Number of vector alu accesses
system.cpu.num_vec_insts                            0                       # number of vector instructions
system.cpu.num_vec_register_reads                   0                       # number of times the vector registers were read
system.cpu.num_vec_register_writes                  0                       # number of times the vector registers were written
system.cpu.op_class::No_OpClass                     0      0.00%      0.00% # Class of executed instruction
system.cpu.op_class::IntAlu                        12     66.67%     66.67% # Class of executed instruction
system.cpu.op_class::IntMult                        0      0.00%     66.67% # Class of executed instruction
system.cpu.op_class::IntDiv                         0      0.00%     66.67% # Class of executed instruction
system.cpu.op_class::FloatAdd                       0      0.00%     66.67% # Class of executed instruction
system.cpu.op_class::FloatCmp                       0      0.00%     66.67% # Class of executed instruction
system.cpu.op_class::FloatCvt                       0      0.00%     66.67% # Class of executed instruction
system.cpu.op_class::FloatMult                      0      0.00%     66.67% # Class of executed instruction
system.cpu.op_class::FloatMultAcc                   0      0.00%     66.67% # Class of executed instruction
system.cpu.op_class::FloatDiv                       0      0.00%     66.67% # Class of executed instruction
system.cpu.op_class::FloatMisc                      0      0.00%     66.67% # Class of executed instruction
system.cpu.op_class::FloatSqrt                      0      0.00%     66.67% # Class of executed instruction
system.cpu.op_class::SimdAdd                        0      0.00%     66.67% # Class of executed instruction
system.cpu.op_class::SimdAddAcc                     0      0.00%     66.67% # Class of executed instruction
system.cpu.op_class::SimdAlu                        0      0.00%     66.67% # Class of executed instruction
system.cpu.op_class::SimdCmp                        0      0.00%     66.67% # Class of executed instruction
system.cpu.op_class::SimdCvt                        0      0.00%     66.67% # Class of executed instruction
system.cpu.op_class::SimdMisc                       0      0.00%     66.67% # Class of executed instruction
system.cpu.op_class::SimdMult                       0      0.00%     66.67% # Class of executed instruction
system.cpu.op_class::SimdMultAcc                    0      0.00%     66.67% # Class of executed instruction
system.cpu.op_class::SimdShift                      0      0.00%     66.67% # Class of executed instruction
system.cpu.op_class::SimdShiftAcc                   0      0.00%     66.67% # Class of executed instruction
system.cpu.op_class::SimdDiv                        0      0.00%     66.67% # Class of executed instruction
system.cpu.op_class::SimdSqrt                       0      0.00%     66.67% # Class of executed instruction
system.cpu.op_class::SimdFloatAdd                   0      0.00%     66.67% # Class of executed instruction
system.cpu.op_class::SimdFloatAlu                   0      0.00%     66.67% # Class of executed instruction
system.cpu.op_class::SimdFloatCmp                   0      0.00%     66.67% # Class of executed instruction
system.cpu.op_class::SimdFloatCvt                   0      0.00%     66.67% # Class of executed instruction
system.cpu.op_class::SimdFloatDiv                   0      0.00%     66.67% # Class of executed instruction
system.cpu.op_class::SimdFloatMisc                  0      0.00%     66.67% # Class of executed instruction
system.cpu.op_class::SimdFloatMult                  0      0.00%     66.67% # Class of executed instruction
system.cpu.op_class::SimdFloatMultAcc               0      0.00%     66.67% # Class of executed instruction
system.cpu.op_class::SimdFloatSqrt                  0      0.00%     66.67% # Class of executed instruction
system.cpu.op_class::SimdReduceAdd                  0      0.00%     66.67% # Class of executed instruction
system.cpu.op_class::SimdReduceAlu                  0      0.00%     66.67% # Class of executed instruction
system.cpu.op_class::SimdReduceCmp                  0      0.00%     66.67% # Class of executed instruction
system.cpu.op_class::SimdFloatReduceAdd             0      0.00%     66.67% # Class of executed instruction
system.cpu.op_class::SimdFloatReduceCmp             0      0.00%     66.67% # Class of executed instruction
system.cpu.op_class::SimdAes                        0      0.00%     66.67% # Class of executed instruction
system.cpu.op_class::SimdAesMix                     0      0.00%     66.67% # Class of executed instruction
system.cpu.op_class::SimdSha1Hash                   0      0.00%     66.67% # Class of executed instruction
system.cpu.op_class::SimdSha1Hash2                  0      0.00%     66.67% # Class of executed instruction
system.cpu.op_class::SimdSha256Hash                 0      0.00%     66.67% # Class of executed instruction
system.cpu.op_class::SimdSha256Hash2                0      0.00%     66.67% # Class of executed instruction
system.cpu.op_class::SimdShaSigma2                  0      0.00%     66.67% # Class of executed instruction
system.cpu.op_class::SimdShaSigma3                  0      0.00%     66.67% # Class of executed instruction
system.cpu.op_class::SimdPredAlu                    0      0.00%     66.67% # Class of executed instruction
system.cpu.op_class::MemRead                        5     27.78%     94.44% # Class of executed instruction
system.cpu.op_class::MemWrite                       1      5.56%    100.00% # Class of executed instruction
system.cpu.op_class::FloatMemRead                   0      0.00%    100.00% # Class of executed instruction
system.cpu.op_class::FloatMemWrite                  0      0.00%    100.00% # Class of executed instruction
system.cpu.op_class::IprAccess                      0      0.00%    100.00% # Class of executed instruction
system.cpu.op_class::InstPrefetch                   0      0.00%    100.00% # Class of executed instruction
system.cpu.op_class::total                         18                       # Class of executed instruction
system.cpu.workload.numSyscalls                     0                       # Number of system calls
system.membus.snoop_filter.hit_multi_requests            0                       # Number of requests hitting in the snoop filter with multiple (>1) holders of the requested data.
system.membus.snoop_filter.hit_multi_snoops            0                       # Number of snoops hitting in the snoop filter with multiple (>1) holders of the requested data.
system.membus.snoop_filter.hit_single_requests       164295                       # Number of requests hitting in the snoop filter with a single holder of the requested data.
system.membus.snoop_filter.hit_single_snoops            0                       # Number of snoops hitting in the snoop filter with a single holder of the requested data.
system.membus.snoop_filter.tot_requests        331234                       # Total number of requests made to the snoop filter.
system.membus.snoop_filter.tot_snoops               0                       # Total number of snoops made to the snoop filter.
system.switch_cpus.branchPred.BTBCorrect            0                       # Number of correct BTB predictions (this stat may not work properly.
system.switch_cpus.branchPred.BTBHitPct      0.000000                       # BTB Hit Percentage
system.switch_cpus.branchPred.BTBHits               0                       # Number of BTB hits
system.switch_cpus.branchPred.BTBLookups      1235075                       # Number of BTB lookups
system.switch_cpus.branchPred.RASInCorrect           32                       # Number of incorrect RAS predictions.
system.switch_cpus.branchPred.condIncorrect        60661                       # Number of conditional branches incorrect
system.switch_cpus.branchPred.condPredicted      1266818                       # Number of conditional branches predicted
system.switch_cpus.branchPred.indirectHits       952348                       # Number of indirect target hits.
system.switch_cpus.branchPred.indirectLookups      1235075                       # Number of indirect predictor lookups.
system.switch_cpus.branchPred.indirectMisses       282727                       # Number of indirect misses.
system.switch_cpus.branchPred.lookups         1334595                       # Number of BP lookups
system.switch_cpus.branchPred.usedRAS           33760                       # Number of times the RAS was used to get a target.
system.switch_cpus.branchPredindirectMispredicted        12683                       # Number of mispredicted indirect branches.
system.switch_cpus.cc_regfile_reads           6151711                       # number of cc regfile reads
system.switch_cpus.cc_regfile_writes          4092069                       # number of cc regfile writes
system.switch_cpus.commit.amos                      0                       # Number of atomic instructions committed
system.switch_cpus.commit.branchMispredicts        60729                       # The number of times a branch was mispredicted
system.switch_cpus.commit.branches            1012410                       # Number of branches committed
system.switch_cpus.commit.bw_lim_events       1374411                       # number cycles where commit BW limit reached
system.switch_cpus.commit.commitSquashedInsts      2199662                       # The number of squashed insts skipped by commit
system.switch_cpus.commit.committedInsts     10000003                       # Number of instructions committed
system.switch_cpus.commit.committedOps       16699628                       # Number of ops (including micro ops) committed
system.switch_cpus.commit.committed_per_cycle::samples     17953322                       # Number of insts commited each cycle
system.switch_cpus.commit.committed_per_cycle::mean     0.930169                       # Number of insts commited each cycle
system.switch_cpus.commit.committed_per_cycle::stdev     2.294185                       # Number of insts commited each cycle
system.switch_cpus.commit.committed_per_cycle::underflows            0      0.00%      0.00% # Number of insts commited each cycle
system.switch_cpus.commit.committed_per_cycle::0     14470826     80.60%     80.60% # Number of insts commited each cycle
system.switch_cpus.commit.committed_per_cycle::1       946289      5.27%     85.87% # Number of insts commited each cycle
system.switch_cpus.commit.committed_per_cycle::2       119526      0.67%     86.54% # Number of insts commited each cycle
system.switch_cpus.commit.committed_per_cycle::3       190079      1.06%     87.60% # Number of insts commited each cycle
system.switch_cpus.commit.committed_per_cycle::4       479883      2.67%     90.27% # Number of insts commited each cycle
system.switch_cpus.commit.committed_per_cycle::5       254169      1.42%     91.69% # Number of insts commited each cycle
system.switch_cpus.commit.committed_per_cycle::6        68588      0.38%     92.07% # Number of insts commited each cycle
system.switch_cpus.commit.committed_per_cycle::7        49551      0.28%     92.34% # Number of insts commited each cycle
system.switch_cpus.commit.committed_per_cycle::8      1374411      7.66%    100.00% # Number of insts commited each cycle
system.switch_cpus.commit.committed_per_cycle::overflows            0      0.00%    100.00% # Number of insts commited each cycle
system.switch_cpus.commit.committed_per_cycle::min_value            0                       # Number of insts commited each cycle
system.switch_cpus.commit.committed_per_cycle::max_value            8                       # Number of insts commited each cycle
system.switch_cpus.commit.committed_per_cycle::total     17953322                       # Number of insts commited each cycle
system.switch_cpus.commit.fp_insts            9250008                       # Number of committed floating point instructions.
system.switch_cpus.commit.function_calls        18108                       # Number of function calls committed.
system.switch_cpus.commit.int_insts           9386149                       # Number of committed integer instructions.
system.switch_cpus.commit.loads               2651089                       # Number of loads committed
system.switch_cpus.commit.membars                   0                       # Number of memory barriers committed
system.switch_cpus.commit.op_class_0::No_OpClass        28068      0.17%      0.17% # Class of committed instruction
system.switch_cpus.commit.op_class_0::IntAlu      7077496     42.38%     42.55% # Class of committed instruction
system.switch_cpus.commit.op_class_0::IntMult           15      0.00%     42.55% # Class of committed instruction
system.switch_cpus.commit.op_class_0::IntDiv           77      0.00%     42.55% # Class of committed instruction
system.switch_cpus.commit.op_class_0::FloatAdd       834706      5.00%     47.55% # Class of committed instruction
system.switch_cpus.commit.op_class_0::FloatCmp            0      0.00%     47.55% # Class of committed instruction
system.switch_cpus.commit.op_class_0::FloatCvt            0      0.00%     47.55% # Class of committed instruction
system.switch_cpus.commit.op_class_0::FloatMult            0      0.00%     47.55% # Class of committed instruction
system.switch_cpus.commit.op_class_0::FloatMultAcc            0      0.00%     47.55% # Class of committed instruction
system.switch_cpus.commit.op_class_0::FloatDiv            0      0.00%     47.55% # Class of committed instruction
system.switch_cpus.commit.op_class_0::FloatMisc            0      0.00%     47.55% # Class of committed instruction
system.switch_cpus.commit.op_class_0::FloatSqrt            0      0.00%     47.55% # Class of committed instruction
system.switch_cpus.commit.op_class_0::SimdAdd            0      0.00%     47.55% # Class of committed instruction
system.switch_cpus.commit.op_class_0::SimdAddAcc            0      0.00%     47.55% # Class of committed instruction
system.switch_cpus.commit.op_class_0::SimdAlu      1472440      8.82%     56.37% # Class of committed instruction
system.switch_cpus.commit.op_class_0::SimdCmp            0      0.00%     56.37% # Class of committed instruction
system.switch_cpus.commit.op_class_0::SimdCvt            6      0.00%     56.37% # Class of committed instruction
system.switch_cpus.commit.op_class_0::SimdMisc        40222      0.24%     56.61% # Class of committed instruction
system.switch_cpus.commit.op_class_0::SimdMult            0      0.00%     56.61% # Class of committed instruction
system.switch_cpus.commit.op_class_0::SimdMultAcc            0      0.00%     56.61% # Class of committed instruction
system.switch_cpus.commit.op_class_0::SimdShift            0      0.00%     56.61% # Class of committed instruction
system.switch_cpus.commit.op_class_0::SimdShiftAcc            0      0.00%     56.61% # Class of committed instruction
system.switch_cpus.commit.op_class_0::SimdDiv            0      0.00%     56.61% # Class of committed instruction
system.switch_cpus.commit.op_class_0::SimdSqrt            0      0.00%     56.61% # Class of committed instruction
system.switch_cpus.commit.op_class_0::SimdFloatAdd      1392117      8.34%     64.94% # Class of committed instruction
system.switch_cpus.commit.op_class_0::SimdFloatAlu            0      0.00%     64.94% # Class of committed instruction
system.switch_cpus.commit.op_class_0::SimdFloatCmp        20118      0.12%     65.06% # Class of committed instruction
system.switch_cpus.commit.op_class_0::SimdFloatCvt      1492478      8.94%     74.00% # Class of committed instruction
system.switch_cpus.commit.op_class_0::SimdFloatDiv            0      0.00%     74.00% # Class of committed instruction
system.switch_cpus.commit.op_class_0::SimdFloatMisc            0      0.00%     74.00% # Class of committed instruction
system.switch_cpus.commit.op_class_0::SimdFloatMult      1432276      8.58%     82.58% # Class of committed instruction
system.switch_cpus.commit.op_class_0::SimdFloatMultAcc            0      0.00%     82.58% # Class of committed instruction
system.switch_cpus.commit.op_class_0::SimdFloatSqrt            0      0.00%     82.58% # Class of committed instruction
system.switch_cpus.commit.op_class_0::SimdReduceAdd            0      0.00%     82.58% # Class of committed instruction
system.switch_cpus.commit.op_class_0::SimdReduceAlu            0      0.00%     82.58% # Class of committed instruction
system.switch_cpus.commit.op_class_0::SimdReduceCmp            0      0.00%     82.58% # Class of committed instruction
system.switch_cpus.commit.op_class_0::SimdFloatReduceAdd            0      0.00%     82.58% # Class of committed instruction
system.switch_cpus.commit.op_class_0::SimdFloatReduceCmp            0      0.00%     82.58% # Class of committed instruction
system.switch_cpus.commit.op_class_0::SimdAes            0      0.00%     82.58% # Class of committed instruction
system.switch_cpus.commit.op_class_0::SimdAesMix            0      0.00%     82.58% # Class of committed instruction
system.switch_cpus.commit.op_class_0::SimdSha1Hash            0      0.00%     82.58% # Class of committed instruction
system.switch_cpus.commit.op_class_0::SimdSha1Hash2            0      0.00%     82.58% # Class of committed instruction
system.switch_cpus.commit.op_class_0::SimdSha256Hash            0      0.00%     82.58% # Class of committed instruction
system.switch_cpus.commit.op_class_0::SimdSha256Hash2            0      0.00%     82.58% # Class of committed instruction
system.switch_cpus.commit.op_class_0::SimdShaSigma2            0      0.00%     82.58% # Class of committed instruction
system.switch_cpus.commit.op_class_0::SimdShaSigma3            0      0.00%     82.58% # Class of committed instruction
system.switch_cpus.commit.op_class_0::SimdPredAlu            0      0.00%     82.58% # Class of committed instruction
system.switch_cpus.commit.op_class_0::MemRead       789848      4.73%     87.31% # Class of committed instruction
system.switch_cpus.commit.op_class_0::MemWrite       194915      1.17%     88.47% # Class of committed instruction
system.switch_cpus.commit.op_class_0::FloatMemRead      1861241     11.15%     99.62% # Class of committed instruction
system.switch_cpus.commit.op_class_0::FloatMemWrite        63605      0.38%    100.00% # Class of committed instruction
system.switch_cpus.commit.op_class_0::IprAccess            0      0.00%    100.00% # Class of committed instruction
system.switch_cpus.commit.op_class_0::InstPrefetch            0      0.00%    100.00% # Class of committed instruction
system.switch_cpus.commit.op_class_0::total     16699628                       # Class of committed instruction
system.switch_cpus.commit.refs                2909609                       # Number of memory references committed
system.switch_cpus.commit.swp_count                 0                       # Number of s/w prefetches committed
system.switch_cpus.commit.vec_insts                 0                       # Number of committed Vector instructions.
system.switch_cpus.committedInsts            10000003                       # Number of Instructions Simulated
system.switch_cpus.committedOps              16699628                       # Number of Ops (including micro ops) Simulated
system.switch_cpus.cpi                       1.829468                       # CPI: Cycles Per Instruction
system.switch_cpus.cpi_total                 1.829468                       # CPI: Total CPI of All Threads
system.switch_cpus.decode.BlockedCycles      14420120                       # Number of cycles decode is blocked
system.switch_cpus.decode.DecodedInsts       19635856                       # Number of instructions handled by decode
system.switch_cpus.decode.IdleCycles          1013064                       # Number of cycles decode is idle
system.switch_cpus.decode.RunCycles           1894559                       # Number of cycles decode is running
system.switch_cpus.decode.SquashCycles          60926                       # Number of cycles decode is squashing
system.switch_cpus.decode.UnblockCycles        875986                       # Number of cycles decode is unblocking
system.switch_cpus.dtb.rdAccesses             3010762                       # TLB accesses on read requests
system.switch_cpus.dtb.rdMisses                 10894                       # TLB misses on read requests
system.switch_cpus.dtb.wrAccesses              287501                       # TLB accesses on write requests
system.switch_cpus.dtb.wrMisses                   608                       # TLB misses on write requests
system.switch_cpus.fetch.Branches             1334595                       # Number of branches that fetch encountered
system.switch_cpus.fetch.CacheLines           1501307                       # Number of cache lines fetched
system.switch_cpus.fetch.Cycles              16653413                       # Number of cycles fetch has run and was not squashing or blocked
system.switch_cpus.fetch.IcacheSquashes         12436                       # Number of outstanding Icache misses that were squashed
system.switch_cpus.fetch.Insts               12410612                       # Number of instructions fetch has processed
system.switch_cpus.fetch.MiscStallCycles           62                       # Number of cycles fetch has spent waiting on interrupts, or bad addresses, or out of MSHRs
system.switch_cpus.fetch.PendingTrapStallCycles         1890                       # Number of stall cycles due to pending traps
system.switch_cpus.fetch.SquashCycles          121852                       # Number of cycles fetch has spent squashing
system.switch_cpus.fetch.branchRate          0.072950                       # Number of branch fetches per cycle
system.switch_cpus.fetch.icacheStallCycles      1548365                       # Number of cycles fetch is stalled on an Icache miss
system.switch_cpus.fetch.predictedBranches       986108                       # Number of branches that fetch has predicted taken
system.switch_cpus.fetch.rate                0.678372                       # Number of inst fetches per cycle
system.switch_cpus.fetch.rateDist::samples     18264656                       # Number of instructions fetched each cycle (Total)
system.switch_cpus.fetch.rateDist::mean      1.138511                       # Number of instructions fetched each cycle (Total)
system.switch_cpus.fetch.rateDist::stdev     2.558424                       # Number of instructions fetched each cycle (Total)
system.switch_cpus.fetch.rateDist::underflows            0      0.00%      0.00% # Number of instructions fetched each cycle (Total)
system.switch_cpus.fetch.rateDist::0         14722651     80.61%     80.61% # Number of instructions fetched each cycle (Total)
system.switch_cpus.fetch.rateDist::1           311202      1.70%     82.31% # Number of instructions fetched each cycle (Total)
system.switch_cpus.fetch.rateDist::2           190358      1.04%     83.35% # Number of instructions fetched each cycle (Total)
system.switch_cpus.fetch.rateDist::3           215766      1.18%     84.53% # Number of instructions fetched each cycle (Total)
system.switch_cpus.fetch.rateDist::4           336537      1.84%     86.38% # Number of instructions fetched each cycle (Total)
system.switch_cpus.fetch.rateDist::5           277453      1.52%     87.90% # Number of instructions fetched each cycle (Total)
system.switch_cpus.fetch.rateDist::6           430837      2.36%     90.26% # Number of instructions fetched each cycle (Total)
system.switch_cpus.fetch.rateDist::7           101964      0.56%     90.81% # Number of instructions fetched each cycle (Total)
system.switch_cpus.fetch.rateDist::8          1677888      9.19%    100.00% # Number of instructions fetched each cycle (Total)
system.switch_cpus.fetch.rateDist::overflows            0      0.00%    100.00% # Number of instructions fetched each cycle (Total)
system.switch_cpus.fetch.rateDist::min_value            0                       # Number of instructions fetched each cycle (Total)
system.switch_cpus.fetch.rateDist::max_value            8                       # Number of instructions fetched each cycle (Total)
system.switch_cpus.fetch.rateDist::total     18264656                       # Number of instructions fetched each cycle (Total)
system.switch_cpus.fp_regfile_reads          16020651                       # number of floating regfile reads
system.switch_cpus.fp_regfile_writes          9302747                       # number of floating regfile writes
system.switch_cpus.idleCycles                   30034                       # Total number of cycles that the CPU has spent unscheduled due to idling
system.switch_cpus.iew.branchMispredicts        67970                       # Number of branch mispredicts detected at execute
system.switch_cpus.iew.exec_branches          1088267                       # Number of branches executed
system.switch_cpus.iew.exec_nop                     0                       # number of nop insts executed
system.switch_cpus.iew.exec_rate             0.991077                       # Inst execution rate
system.switch_cpus.iew.exec_refs              3335229                       # number of memory reference insts executed
system.switch_cpus.iew.exec_stores             287491                       # Number of stores executed
system.switch_cpus.iew.exec_swp                     0                       # number of swp insts executed
system.switch_cpus.iew.iewBlockCycles         7616914                       # Number of cycles IEW is blocking
system.switch_cpus.iew.iewDispLoadInsts       3065947                       # Number of dispatched load instructions
system.switch_cpus.iew.iewDispNonSpecInsts            1                       # Number of dispatched non-speculative instructions
system.switch_cpus.iew.iewDispSquashedInsts         4807                       # Number of squashed instructions skipped by dispatch
system.switch_cpus.iew.iewDispStoreInsts       320848                       # Number of dispatched store instructions
system.switch_cpus.iew.iewDispatchedInsts     18897058                       # Number of instructions dispatched to IQ
system.switch_cpus.iew.iewExecLoadInsts       3047738                       # Number of load instructions executed
system.switch_cpus.iew.iewExecSquashedInsts       109004                       # Number of squashed instructions skipped in execute
system.switch_cpus.iew.iewExecutedInsts      18131439                       # Number of executed instructions
system.switch_cpus.iew.iewIQFullEvents          78689                       # Number of times the IQ has become full, causing a stall
system.switch_cpus.iew.iewIdleCycles                0                       # Number of cycles IEW is idle
system.switch_cpus.iew.iewLSQFullEvents        773366                       # Number of times the LSQ has become full, causing a stall
system.switch_cpus.iew.iewSquashCycles          60926                       # Number of cycles IEW is squashing
system.switch_cpus.iew.iewUnblockCycles        900820                       # Number of cycles IEW is unblocking
system.switch_cpus.iew.lsq.thread0.blockedLoads            0                       # Number of blocked loads due to partial load-store forwarding
system.switch_cpus.iew.lsq.thread0.cacheBlocked        21943                       # Number of times an access to memory failed due to the cache being blocked
system.switch_cpus.iew.lsq.thread0.forwLoads        32775                       # Number of loads that had data forwarded from stores
system.switch_cpus.iew.lsq.thread0.ignoredResponses          248                       # Number of memory responses ignored because the instruction is squashed
system.switch_cpus.iew.lsq.thread0.invAddrLoads            0                       # Number of loads ignored due to an invalid address
system.switch_cpus.iew.lsq.thread0.invAddrSwpfs            0                       # Number of software prefetches ignored due to an invalid address
system.switch_cpus.iew.lsq.thread0.memOrderViolation          219                       # Number of memory ordering violations
system.switch_cpus.iew.lsq.thread0.rescheduledLoads           29                       # Number of loads that were rescheduled
system.switch_cpus.iew.lsq.thread0.squashedLoads       414836                       # Number of loads squashed
system.switch_cpus.iew.lsq.thread0.squashedStores        62326                       # Number of stores squashed
system.switch_cpus.iew.memOrderViolationEvents          219                       # Number of memory order violations
system.switch_cpus.iew.predictedNotTakenIncorrect        19926                       # Number of branches that were predicted not taken incorrectly
system.switch_cpus.iew.predictedTakenIncorrect        48044                       # Number of branches that were predicted taken incorrectly
system.switch_cpus.iew.wb_consumers          23645601                       # num instructions consuming a value
system.switch_cpus.iew.wb_count              17895415                       # cumulative count of insts written-back
system.switch_cpus.iew.wb_fanout             0.589739                       # average fanout of values written-back
system.switch_cpus.iew.wb_producers          13944736                       # num instructions producing a value
system.switch_cpus.iew.wb_rate               0.978175                       # insts written-back per cycle
system.switch_cpus.iew.wb_sent               17920901                       # cumulative count of insts sent to commit
system.switch_cpus.int_regfile_reads         15388098                       # number of integer regfile reads
system.switch_cpus.int_regfile_writes         7185575                       # number of integer regfile writes
system.switch_cpus.ipc                       0.546607                       # IPC: Instructions Per Cycle
system.switch_cpus.ipc_total                 0.546607                       # IPC: Total IPC of All Threads
system.switch_cpus.iq.FU_type_0::No_OpClass        35739      0.20%      0.20% # Type of FU issued
system.switch_cpus.iq.FU_type_0::IntAlu       7997115     43.84%     44.04% # Type of FU issued
system.switch_cpus.iq.FU_type_0::IntMult           31      0.00%     44.04% # Type of FU issued
system.switch_cpus.iq.FU_type_0::IntDiv            79      0.00%     44.04% # Type of FU issued
system.switch_cpus.iq.FU_type_0::FloatAdd       899011      4.93%     48.97% # Type of FU issued
system.switch_cpus.iq.FU_type_0::FloatCmp            0      0.00%     48.97% # Type of FU issued
system.switch_cpus.iq.FU_type_0::FloatCvt            0      0.00%     48.97% # Type of FU issued
system.switch_cpus.iq.FU_type_0::FloatMult            0      0.00%     48.97% # Type of FU issued
system.switch_cpus.iq.FU_type_0::FloatMultAcc            0      0.00%     48.97% # Type of FU issued
system.switch_cpus.iq.FU_type_0::FloatDiv            0      0.00%     48.97% # Type of FU issued
system.switch_cpus.iq.FU_type_0::FloatMisc            0      0.00%     48.97% # Type of FU issued
system.switch_cpus.iq.FU_type_0::FloatSqrt            0      0.00%     48.97% # Type of FU issued
system.switch_cpus.iq.FU_type_0::SimdAdd            0      0.00%     48.97% # Type of FU issued
system.switch_cpus.iq.FU_type_0::SimdAddAcc            0      0.00%     48.97% # Type of FU issued
system.switch_cpus.iq.FU_type_0::SimdAlu      1537242      8.43%     57.40% # Type of FU issued
system.switch_cpus.iq.FU_type_0::SimdCmp            0      0.00%     57.40% # Type of FU issued
system.switch_cpus.iq.FU_type_0::SimdCvt           14      0.00%     57.40% # Type of FU issued
system.switch_cpus.iq.FU_type_0::SimdMisc        41289      0.23%     57.62% # Type of FU issued
system.switch_cpus.iq.FU_type_0::SimdMult            0      0.00%     57.62% # Type of FU issued
system.switch_cpus.iq.FU_type_0::SimdMultAcc            0      0.00%     57.62% # Type of FU issued
system.switch_cpus.iq.FU_type_0::SimdShift            0      0.00%     57.62% # Type of FU issued
system.switch_cpus.iq.FU_type_0::SimdShiftAcc            0      0.00%     57.62% # Type of FU issued
system.switch_cpus.iq.FU_type_0::SimdDiv            0      0.00%     57.62% # Type of FU issued
system.switch_cpus.iq.FU_type_0::SimdSqrt            0      0.00%     57.62% # Type of FU issued
system.switch_cpus.iq.FU_type_0::SimdFloatAdd      1394971      7.65%     65.27% # Type of FU issued
system.switch_cpus.iq.FU_type_0::SimdFloatAlu            0      0.00%     65.27% # Type of FU issued
system.switch_cpus.iq.FU_type_0::SimdFloatCmp        20123      0.11%     65.38% # Type of FU issued
system.switch_cpus.iq.FU_type_0::SimdFloatCvt      1499001      8.22%     73.60% # Type of FU issued
system.switch_cpus.iq.FU_type_0::SimdFloatDiv            0      0.00%     73.60% # Type of FU issued
system.switch_cpus.iq.FU_type_0::SimdFloatMisc            0      0.00%     73.60% # Type of FU issued
system.switch_cpus.iq.FU_type_0::SimdFloatMult      1436120      7.87%     81.47% # Type of FU issued
system.switch_cpus.iq.FU_type_0::SimdFloatMultAcc            0      0.00%     81.47% # Type of FU issued
system.switch_cpus.iq.FU_type_0::SimdFloatSqrt            0      0.00%     81.47% # Type of FU issued
system.switch_cpus.iq.FU_type_0::SimdReduceAdd            0      0.00%     81.47% # Type of FU issued
system.switch_cpus.iq.FU_type_0::SimdReduceAlu            0      0.00%     81.47% # Type of FU issued
system.switch_cpus.iq.FU_type_0::SimdReduceCmp            0      0.00%     81.47% # Type of FU issued
system.switch_cpus.iq.FU_type_0::SimdFloatReduceAdd            0      0.00%     81.47% # Type of FU issued
system.switch_cpus.iq.FU_type_0::SimdFloatReduceCmp            0      0.00%     81.47% # Type of FU issued
system.switch_cpus.iq.FU_type_0::SimdAes            0      0.00%     81.47% # Type of FU issued
system.switch_cpus.iq.FU_type_0::SimdAesMix            0      0.00%     81.47% # Type of FU issued
system.switch_cpus.iq.FU_type_0::SimdSha1Hash            0      0.00%     81.47% # Type of FU issued
system.switch_cpus.iq.FU_type_0::SimdSha1Hash2            0      0.00%     81.47% # Type of FU issued
system.switch_cpus.iq.FU_type_0::SimdSha256Hash            0      0.00%     81.47% # Type of FU issued
system.switch_cpus.iq.FU_type_0::SimdSha256Hash2            0      0.00%     81.47% # Type of FU issued
system.switch_cpus.iq.FU_type_0::SimdShaSigma2            0      0.00%     81.47% # Type of FU issued
system.switch_cpus.iq.FU_type_0::SimdShaSigma3            0      0.00%     81.47% # Type of FU issued
system.switch_cpus.iq.FU_type_0::SimdPredAlu            0      0.00%     81.47% # Type of FU issued
system.switch_cpus.iq.FU_type_0::MemRead      1075570      5.90%     87.37% # Type of FU issued
system.switch_cpus.iq.FU_type_0::MemWrite       227233      1.25%     88.61% # Type of FU issued
system.switch_cpus.iq.FU_type_0::FloatMemRead      2012764     11.03%     99.65% # Type of FU issued
system.switch_cpus.iq.FU_type_0::FloatMemWrite        64147      0.35%    100.00% # Type of FU issued
system.switch_cpus.iq.FU_type_0::IprAccess            0      0.00%    100.00% # Type of FU issued
system.switch_cpus.iq.FU_type_0::InstPrefetch            0      0.00%    100.00% # Type of FU issued
system.switch_cpus.iq.FU_type_0::total       18240449                       # Type of FU issued
system.switch_cpus.iq.fp_alu_accesses         9749684                       # Number of floating point alu accesses
system.switch_cpus.iq.fp_inst_queue_reads     19317601                       # Number of floating instruction queue reads
system.switch_cpus.iq.fp_inst_queue_wakeup_accesses      9415183                       # Number of floating instruction queue wakeup accesses
system.switch_cpus.iq.fp_inst_queue_writes     10141836                       # Number of floating instruction queue writes
system.switch_cpus.iq.fu_busy_cnt              313852                       # FU busy when requested
system.switch_cpus.iq.fu_busy_rate           0.017206                       # FU busy rate (busy events/executed inst)
system.switch_cpus.iq.fu_full::No_OpClass            0      0.00%      0.00% # attempts to use FU when none available
system.switch_cpus.iq.fu_full::IntAlu          103707     33.04%     33.04% # attempts to use FU when none available
system.switch_cpus.iq.fu_full::IntMult              0      0.00%     33.04% # attempts to use FU when none available
system.switch_cpus.iq.fu_full::IntDiv               0      0.00%     33.04% # attempts to use FU when none available
system.switch_cpus.iq.fu_full::FloatAdd             0      0.00%     33.04% # attempts to use FU when none available
system.switch_cpus.iq.fu_full::FloatCmp             0      0.00%     33.04% # attempts to use FU when none available
system.switch_cpus.iq.fu_full::FloatCvt             0      0.00%     33.04% # attempts to use FU when none available
system.switch_cpus.iq.fu_full::FloatMult            0      0.00%     33.04% # attempts to use FU when none available
system.switch_cpus.iq.fu_full::FloatMultAcc            0      0.00%     33.04% # attempts to use FU when none available
system.switch_cpus.iq.fu_full::FloatDiv             0      0.00%     33.04% # attempts to use FU when none available
system.switch_cpus.iq.fu_full::FloatMisc            0      0.00%     33.04% # attempts to use FU when none available
system.switch_cpus.iq.fu_full::FloatSqrt            0      0.00%     33.04% # attempts to use FU when none available
system.switch_cpus.iq.fu_full::SimdAdd              0      0.00%     33.04% # attempts to use FU when none available
system.switch_cpus.iq.fu_full::SimdAddAcc            0      0.00%     33.04% # attempts to use FU when none available
system.switch_cpus.iq.fu_full::SimdAlu          52212     16.64%     49.68% # attempts to use FU when none available
system.switch_cpus.iq.fu_full::SimdCmp              0      0.00%     49.68% # attempts to use FU when none available
system.switch_cpus.iq.fu_full::SimdCvt              0      0.00%     49.68% # attempts to use FU when none available
system.switch_cpus.iq.fu_full::SimdMisc             0      0.00%     49.68% # attempts to use FU when none available
system.switch_cpus.iq.fu_full::SimdMult             0      0.00%     49.68% # attempts to use FU when none available
system.switch_cpus.iq.fu_full::SimdMultAcc            0      0.00%     49.68% # attempts to use FU when none available
system.switch_cpus.iq.fu_full::SimdShift            0      0.00%     49.68% # attempts to use FU when none available
system.switch_cpus.iq.fu_full::SimdShiftAcc            0      0.00%     49.68% # attempts to use FU when none available
system.switch_cpus.iq.fu_full::SimdDiv              0      0.00%     49.68% # attempts to use FU when none available
system.switch_cpus.iq.fu_full::SimdSqrt             0      0.00%     49.68% # attempts to use FU when none available
system.switch_cpus.iq.fu_full::SimdFloatAdd        71459     22.77%     72.45% # attempts to use FU when none available
system.switch_cpus.iq.fu_full::SimdFloatAlu            0      0.00%     72.45% # attempts to use FU when none available
system.switch_cpus.iq.fu_full::SimdFloatCmp            0      0.00%     72.45% # attempts to use FU when none available
system.switch_cpus.iq.fu_full::SimdFloatCvt        19588      6.24%     78.69% # attempts to use FU when none available
system.switch_cpus.iq.fu_full::SimdFloatDiv            0      0.00%     78.69% # attempts to use FU when none available
system.switch_cpus.iq.fu_full::SimdFloatMisc            0      0.00%     78.69% # attempts to use FU when none available
system.switch_cpus.iq.fu_full::SimdFloatMult         4164      1.33%     80.02% # attempts to use FU when none available
system.switch_cpus.iq.fu_full::SimdFloatMultAcc            0      0.00%     80.02% # attempts to use FU when none available
system.switch_cpus.iq.fu_full::SimdFloatSqrt            0      0.00%     80.02% # attempts to use FU when none available
system.switch_cpus.iq.fu_full::SimdReduceAdd            0      0.00%     80.02% # attempts to use FU when none available
system.switch_cpus.iq.fu_full::SimdReduceAlu            0      0.00%     80.02% # attempts to use FU when none available
system.switch_cpus.iq.fu_full::SimdReduceCmp            0      0.00%     80.02% # attempts to use FU when none available
system.switch_cpus.iq.fu_full::SimdFloatReduceAdd            0      0.00%     80.02% # attempts to use FU when none available
system.switch_cpus.iq.fu_full::SimdFloatReduceCmp            0      0.00%     80.02% # attempts to use FU when none available
system.switch_cpus.iq.fu_full::SimdAes              0      0.00%     80.02% # attempts to use FU when none available
system.switch_cpus.iq.fu_full::SimdAesMix            0      0.00%     80.02% # attempts to use FU when none available
system.switch_cpus.iq.fu_full::SimdSha1Hash            0      0.00%     80.02% # attempts to use FU when none available
system.switch_cpus.iq.fu_full::SimdSha1Hash2            0      0.00%     80.02% # attempts to use FU when none available
system.switch_cpus.iq.fu_full::SimdSha256Hash            0      0.00%     80.02% # attempts to use FU when none available
system.switch_cpus.iq.fu_full::SimdSha256Hash2            0      0.00%     80.02% # attempts to use FU when none available
system.switch_cpus.iq.fu_full::SimdShaSigma2            0      0.00%     80.02% # attempts to use FU when none available
system.switch_cpus.iq.fu_full::SimdShaSigma3            0      0.00%     80.02% # attempts to use FU when none available
system.switch_cpus.iq.fu_full::SimdPredAlu            0      0.00%     80.02% # attempts to use FU when none available
system.switch_cpus.iq.fu_full::MemRead          22029      7.02%     87.03% # attempts to use FU when none available
system.switch_cpus.iq.fu_full::MemWrite          4301      1.37%     88.40% # attempts to use FU when none available
system.switch_cpus.iq.fu_full::FloatMemRead        36331     11.58%     99.98% # attempts to use FU when none available
system.switch_cpus.iq.fu_full::FloatMemWrite           61      0.02%    100.00% # attempts to use FU when none available
system.switch_cpus.iq.fu_full::IprAccess            0      0.00%    100.00% # attempts to use FU when none available
system.switch_cpus.iq.fu_full::InstPrefetch            0      0.00%    100.00% # attempts to use FU when none available
system.switch_cpus.iq.int_alu_accesses        8768878                       # Number of integer alu accesses
system.switch_cpus.iq.int_inst_queue_reads     35778223                       # Number of integer instruction queue reads
system.switch_cpus.iq.int_inst_queue_wakeup_accesses      8480232                       # Number of integer instruction queue wakeup accesses
system.switch_cpus.iq.int_inst_queue_writes     10952734                       # Number of integer instruction queue writes
system.switch_cpus.iq.iqInstsAdded           18897055                       # Number of instructions added to the IQ (excludes non-spec)
system.switch_cpus.iq.iqInstsIssued          18240449                       # Number of instructions issued
system.switch_cpus.iq.iqNonSpecInstsAdded            3                       # Number of non-speculative instructions added to the IQ
system.switch_cpus.iq.iqSquashedInstsExamined      2197298                       # Number of squashed instructions iterated over during squash; mainly for profiling
system.switch_cpus.iq.iqSquashedInstsIssued        36424                       # Number of squashed instructions issued
system.switch_cpus.iq.iqSquashedNonSpecRemoved            3                       # Number of squashed non-spec instructions that were removed
system.switch_cpus.iq.iqSquashedOperandsExamined      3321841                       # Number of squashed operands that are examined and possibly removed from graph
system.switch_cpus.iq.issued_per_cycle::samples     18264656                       # Number of insts issued each cycle
system.switch_cpus.iq.issued_per_cycle::mean     0.998675                       # Number of insts issued each cycle
system.switch_cpus.iq.issued_per_cycle::stdev     1.869186                       # Number of insts issued each cycle
system.switch_cpus.iq.issued_per_cycle::underflows            0      0.00%      0.00% # Number of insts issued each cycle
system.switch_cpus.iq.issued_per_cycle::0     12636484     69.19%     69.19% # Number of insts issued each cycle
system.switch_cpus.iq.issued_per_cycle::1      1443271      7.90%     77.09% # Number of insts issued each cycle
system.switch_cpus.iq.issued_per_cycle::2      1070590      5.86%     82.95% # Number of insts issued each cycle
system.switch_cpus.iq.issued_per_cycle::3       877350      4.80%     87.75% # Number of insts issued each cycle
system.switch_cpus.iq.issued_per_cycle::4       772968      4.23%     91.98% # Number of insts issued each cycle
system.switch_cpus.iq.issued_per_cycle::5       523321      2.87%     94.85% # Number of insts issued each cycle
system.switch_cpus.iq.issued_per_cycle::6       451823      2.47%     97.32% # Number of insts issued each cycle
system.switch_cpus.iq.issued_per_cycle::7       306259      1.68%     99.00% # Number of insts issued each cycle
system.switch_cpus.iq.issued_per_cycle::8       182590      1.00%    100.00% # Number of insts issued each cycle
system.switch_cpus.iq.issued_per_cycle::overflows            0      0.00%    100.00% # Number of insts issued each cycle
system.switch_cpus.iq.issued_per_cycle::min_value            0                       # Number of insts issued each cycle
system.switch_cpus.iq.issued_per_cycle::max_value            8                       # Number of insts issued each cycle
system.switch_cpus.iq.issued_per_cycle::total     18264656                       # Number of insts issued each cycle
system.switch_cpus.iq.rate                   0.997035                       # Inst issue rate
system.switch_cpus.iq.vec_alu_accesses              0                       # Number of vector alu accesses
system.switch_cpus.iq.vec_inst_queue_reads            0                       # Number of vector instruction queue reads
system.switch_cpus.iq.vec_inst_queue_wakeup_accesses            0                       # Number of vector instruction queue wakeup accesses
system.switch_cpus.iq.vec_inst_queue_writes            0                       # Number of vector instruction queue writes
system.switch_cpus.itb.rdAccesses                   0                       # TLB accesses on read requests
system.switch_cpus.itb.rdMisses                     0                       # TLB misses on read requests
system.switch_cpus.itb.wrAccesses             1501569                       # TLB accesses on write requests
system.switch_cpus.itb.wrMisses                   298                       # TLB misses on write requests
system.switch_cpus.memDep0.conflictingLoads        42582                       # Number of conflicting loads.
system.switch_cpus.memDep0.conflictingStores        16888                       # Number of conflicting stores.
system.switch_cpus.memDep0.insertedLoads      3065947                       # Number of loads inserted to the mem dependence unit.
system.switch_cpus.memDep0.insertedStores       320848                       # Number of stores inserted to the mem dependence unit.
system.switch_cpus.misc_regfile_reads         5604570                       # number of misc regfile reads
system.switch_cpus.misc_regfile_writes              1                       # number of misc regfile writes
system.switch_cpus.numCycles                 18294690                       # number of cpu cycles simulated
system.switch_cpus.numWorkItemsCompleted            0                       # number of work items this cpu completed
system.switch_cpus.numWorkItemsStarted              0                       # number of work items this cpu started
system.switch_cpus.rename.BlockCycles        11539492                       # Number of cycles rename is blocking
system.switch_cpus.rename.CommittedMaps      19126939                       # Number of HB maps that are committed
system.switch_cpus.rename.IQFullEvents        1522802                       # Number of times rename has blocked due to IQ full
system.switch_cpus.rename.IdleCycles          1367219                       # Number of cycles rename is idle
system.switch_cpus.rename.LQFullEvents         467802                       # Number of times rename has blocked due to LQ full
system.switch_cpus.rename.ROBFullEvents        137975                       # Number of times rename has blocked due to ROB full
system.switch_cpus.rename.RenameLookups      46957571                       # Number of register rename lookups that rename has made
system.switch_cpus.rename.RenamedInsts       19347714                       # Number of instructions processed by rename
system.switch_cpus.rename.RenamedOperands     22318154                       # Number of destination operands rename has renamed
system.switch_cpus.rename.RunCycles           2359979                       # Number of cycles rename is running
system.switch_cpus.rename.SQFullEvents         684154                       # Number of times rename has blocked due to SQ full
system.switch_cpus.rename.SquashCycles          60926                       # Number of cycles rename is squashing
system.switch_cpus.rename.UnblockCycles       2937039                       # Number of cycles rename is unblocking
system.switch_cpus.rename.UndoneMaps          3191057                       # Number of HB maps that are undone due to squashing
system.switch_cpus.rename.fp_rename_lookups     16838368                       # Number of floating rename lookups
system.switch_cpus.rename.int_rename_lookups     16998575                       # Number of integer rename lookups
system.switch_cpus.rename.serializeStallCycles            0                       # count of cycles rename stalled for serializing inst
system.switch_cpus.rename.serializingInsts            0                       # count of serializing insts renamed
system.switch_cpus.rename.skidInsts           4553571                       # count of insts added to the skid buffer
system.switch_cpus.rename.tempSerializingInsts            0                       # count of temporary serializing insts renamed
system.switch_cpus.rob.rob_reads             35478201                       # The number of ROB reads
system.switch_cpus.rob.rob_writes            38110612                       # The number of ROB writes
system.switch_cpus.timesIdled                     390                       # Number of times that the entire CPU went into an idle state and unscheduled itself
system.tol2bus.snoop_filter.hit_multi_requests            0                       # Number of requests hitting in the snoop filter with multiple (>1) holders of the requested data.
system.tol2bus.snoop_filter.hit_multi_snoops            0                       # Number of snoops hitting in the snoop filter with multiple (>1) holders of the requested data.
system.tol2bus.snoop_filter.hit_single_requests       183552                       # Number of requests hitting in the snoop filter with a single holder of the requested data.
system.tol2bus.snoop_filter.hit_single_snoops       111459                       # Number of snoops hitting in the snoop filter with a single holder of the requested data.
system.tol2bus.snoop_filter.tot_requests       368422                       # Total number of requests made to the snoop filter.
system.tol2bus.snoop_filter.tot_snoops         111459                       # Total number of snoops made to the snoop filter.
system.membus.pwrStateResidencyTicks::UNDEFINED 270776427409000                       # Cumulative time (in ticks) in various power states
system.membus.trans_dist::ReadResp             155246                       # Transaction distribution
system.membus.trans_dist::WritebackDirty        16540                       # Transaction distribution
system.membus.trans_dist::CleanEvict           147755                       # Transaction distribution
system.membus.trans_dist::ReadExReq             11692                       # Transaction distribution
system.membus.trans_dist::ReadExResp            11692                       # Transaction distribution
system.membus.trans_dist::ReadSharedReq        155247                       # Transaction distribution
system.membus.pkt_count_system.l2.mem_side::system.mem_ctrls.port       498172                       # Packet count per connected master and slave (bytes)
system.membus.pkt_count_system.l2.mem_side::total       498172                       # Packet count per connected master and slave (bytes)
system.membus.pkt_count::total                 498172                       # Packet count per connected master and slave (bytes)
system.membus.pkt_size_system.l2.mem_side::system.mem_ctrls.port     11742592                       # Cumulative packet size per connected master and slave (bytes)
system.membus.pkt_size_system.l2.mem_side::total     11742592                       # Cumulative packet size per connected master and slave (bytes)
system.membus.pkt_size::total                11742592                       # Cumulative packet size per connected master and slave (bytes)
system.membus.snoops                                0                       # Total snoops (count)
system.membus.snoopTraffic                          0                       # Total snoop traffic (bytes)
system.membus.snoop_fanout::samples            166939                       # Request fanout histogram
system.membus.snoop_fanout::mean                    0                       # Request fanout histogram
system.membus.snoop_fanout::stdev                   0                       # Request fanout histogram
system.membus.snoop_fanout::underflows              0      0.00%      0.00% # Request fanout histogram
system.membus.snoop_fanout::0                  166939    100.00%    100.00% # Request fanout histogram
system.membus.snoop_fanout::1                       0      0.00%    100.00% # Request fanout histogram
system.membus.snoop_fanout::overflows               0      0.00%    100.00% # Request fanout histogram
system.membus.snoop_fanout::min_value               0                       # Request fanout histogram
system.membus.snoop_fanout::max_value               0                       # Request fanout histogram
system.membus.snoop_fanout::total              166939                       # Request fanout histogram
system.membus.reqLayer2.occupancy           431323500                       # Layer occupancy (ticks)
system.membus.reqLayer2.utilization               4.7                       # Layer utilization (%)
system.membus.respLayer1.occupancy          891978000                       # Layer occupancy (ticks)
system.membus.respLayer1.utilization              9.8                       # Layer utilization (%)
system.switch_cpus.pwrStateResidencyTicks::OFF   9147355250                       # Cumulative time (in ticks) in various power states
system.switch_cpus.dtb.walker.pwrStateResidencyTicks::UNDEFINED 270776427409000                       # Cumulative time (in ticks) in various power states
system.switch_cpus.itb.walker.pwrStateResidencyTicks::UNDEFINED 270776427409000                       # Cumulative time (in ticks) in various power states
system.tol2bus.pwrStateResidencyTicks::UNDEFINED 270776427409000                       # Cumulative time (in ticks) in various power states
system.tol2bus.trans_dist::ReadResp            172540                       # Transaction distribution
system.tol2bus.trans_dist::WritebackDirty        37582                       # Transaction distribution
system.tol2bus.trans_dist::WritebackClean          172                       # Transaction distribution
system.tol2bus.trans_dist::CleanEvict          325591                       # Transaction distribution
system.tol2bus.trans_dist::ReadExReq            12329                       # Transaction distribution
system.tol2bus.trans_dist::ReadExResp           12329                       # Transaction distribution
system.tol2bus.trans_dist::ReadCleanReq           465                       # Transaction distribution
system.tol2bus.trans_dist::ReadSharedReq       172076                       # Transaction distribution
system.tol2bus.pkt_count_system.cpu.icache.mem_side::system.l2.cpu_side         1102                       # Packet count per connected master and slave (bytes)
system.tol2bus.pkt_count_system.cpu.dcache.mem_side::system.l2.cpu_side       552189                       # Packet count per connected master and slave (bytes)
system.tol2bus.pkt_count::total                553291                       # Packet count per connected master and slave (bytes)
system.tol2bus.pkt_size_system.cpu.icache.mem_side::system.l2.cpu_side        40768                       # Cumulative packet size per connected master and slave (bytes)
system.tol2bus.pkt_size_system.cpu.dcache.mem_side::system.l2.cpu_side     13148544                       # Cumulative packet size per connected master and slave (bytes)
system.tol2bus.pkt_size::total               13189312                       # Cumulative packet size per connected master and slave (bytes)
system.tol2bus.snoops                          179793                       # Total snoops (count)
system.tol2bus.snoopTraffic                   1058560                       # Total snoop traffic (bytes)
system.tol2bus.snoop_fanout::samples           364663                       # Request fanout histogram
system.tol2bus.snoop_fanout::mean            0.305649                       # Request fanout histogram
system.tol2bus.snoop_fanout::stdev           0.460683                       # Request fanout histogram
system.tol2bus.snoop_fanout::underflows             0      0.00%      0.00% # Request fanout histogram
system.tol2bus.snoop_fanout::0                 253204     69.44%     69.44% # Request fanout histogram
system.tol2bus.snoop_fanout::1                 111459     30.56%    100.00% # Request fanout histogram
system.tol2bus.snoop_fanout::2                      0      0.00%    100.00% # Request fanout histogram
system.tol2bus.snoop_fanout::3                      0      0.00%    100.00% # Request fanout histogram
system.tol2bus.snoop_fanout::4                      0      0.00%    100.00% # Request fanout histogram
system.tol2bus.snoop_fanout::overflows              0      0.00%    100.00% # Request fanout histogram
system.tol2bus.snoop_fanout::min_value              0                       # Request fanout histogram
system.tol2bus.snoop_fanout::max_value              1                       # Request fanout histogram
system.tol2bus.snoop_fanout::total             364663                       # Request fanout histogram
system.tol2bus.reqLayer0.occupancy          205422500                       # Layer occupancy (ticks)
system.tol2bus.reqLayer0.utilization              2.2                       # Layer utilization (%)
system.tol2bus.respLayer1.occupancy         276601999                       # Layer occupancy (ticks)
system.tol2bus.respLayer1.utilization             3.0                       # Layer utilization (%)
system.tol2bus.respLayer0.occupancy            694500                       # Layer occupancy (ticks)
system.tol2bus.respLayer0.utilization             0.0                       # Layer utilization (%)
system.voltage_domain.voltage                       1                       # Voltage in Volts
system.clk_domain.clock                          1000                       # Clock period in ticks
system.l2.pwrStateResidencyTicks::UNDEFINED 270776427409000                       # Cumulative time (in ticks) in various power states
system.l2.demand_hits::.switch_cpus.inst           16                       # number of demand (read+write) hits
system.l2.demand_hits::.switch_cpus.data        17915                       # number of demand (read+write) hits
system.l2.demand_hits::total                    17931                       # number of demand (read+write) hits
system.l2.overall_hits::.switch_cpus.inst           16                       # number of overall hits
system.l2.overall_hits::.switch_cpus.data        17915                       # number of overall hits
system.l2.overall_hits::total                   17931                       # number of overall hits
system.l2.demand_misses::.cpu.inst                  2                       # number of demand (read+write) misses
system.l2.demand_misses::.cpu.data                  3                       # number of demand (read+write) misses
system.l2.demand_misses::.switch_cpus.inst          447                       # number of demand (read+write) misses
system.l2.demand_misses::.switch_cpus.data       166487                       # number of demand (read+write) misses
system.l2.demand_misses::total                 166939                       # number of demand (read+write) misses
system.l2.overall_misses::.cpu.inst                 2                       # number of overall misses
system.l2.overall_misses::.cpu.data                 3                       # number of overall misses
system.l2.overall_misses::.switch_cpus.inst          447                       # number of overall misses
system.l2.overall_misses::.switch_cpus.data       166487                       # number of overall misses
system.l2.overall_misses::total                166939                       # number of overall misses
system.l2.demand_miss_latency::.switch_cpus.inst     39768000                       # number of demand (read+write) miss cycles
system.l2.demand_miss_latency::.switch_cpus.data  13699429000                       # number of demand (read+write) miss cycles
system.l2.demand_miss_latency::total      13739197000                       # number of demand (read+write) miss cycles
system.l2.overall_miss_latency::.switch_cpus.inst     39768000                       # number of overall miss cycles
system.l2.overall_miss_latency::.switch_cpus.data  13699429000                       # number of overall miss cycles
system.l2.overall_miss_latency::total     13739197000                       # number of overall miss cycles
system.l2.demand_accesses::.cpu.inst                2                       # number of demand (read+write) accesses
system.l2.demand_accesses::.cpu.data                3                       # number of demand (read+write) accesses
system.l2.demand_accesses::.switch_cpus.inst          463                       # number of demand (read+write) accesses
system.l2.demand_accesses::.switch_cpus.data       184402                       # number of demand (read+write) accesses
system.l2.demand_accesses::total               184870                       # number of demand (read+write) accesses
system.l2.overall_accesses::.cpu.inst               2                       # number of overall (read+write) accesses
system.l2.overall_accesses::.cpu.data               3                       # number of overall (read+write) accesses
system.l2.overall_accesses::.switch_cpus.inst          463                       # number of overall (read+write) accesses
system.l2.overall_accesses::.switch_cpus.data       184402                       # number of overall (read+write) accesses
system.l2.overall_accesses::total              184870                       # number of overall (read+write) accesses
system.l2.demand_miss_rate::.cpu.inst               1                       # miss rate for demand accesses
system.l2.demand_miss_rate::.cpu.data               1                       # miss rate for demand accesses
system.l2.demand_miss_rate::.switch_cpus.inst     0.965443                       # miss rate for demand accesses
system.l2.demand_miss_rate::.switch_cpus.data     0.902848                       # miss rate for demand accesses
system.l2.demand_miss_rate::total            0.903008                       # miss rate for demand accesses
system.l2.overall_miss_rate::.cpu.inst              1                       # miss rate for overall accesses
system.l2.overall_miss_rate::.cpu.data              1                       # miss rate for overall accesses
system.l2.overall_miss_rate::.switch_cpus.inst     0.965443                       # miss rate for overall accesses
system.l2.overall_miss_rate::.switch_cpus.data     0.902848                       # miss rate for overall accesses
system.l2.overall_miss_rate::total           0.903008                       # miss rate for overall accesses
system.l2.demand_avg_miss_latency::.switch_cpus.inst 88966.442953                       # average overall miss latency
system.l2.demand_avg_miss_latency::.switch_cpus.data 82285.277529                       # average overall miss latency
system.l2.demand_avg_miss_latency::total 82300.702652                       # average overall miss latency
system.l2.overall_avg_miss_latency::.switch_cpus.inst 88966.442953                       # average overall miss latency
system.l2.overall_avg_miss_latency::.switch_cpus.data 82285.277529                       # average overall miss latency
system.l2.overall_avg_miss_latency::total 82300.702652                       # average overall miss latency
system.l2.blocked_cycles::no_mshrs                  0                       # number of cycles access was blocked
system.l2.blocked_cycles::no_targets                0                       # number of cycles access was blocked
system.l2.blocked::no_mshrs                         0                       # number of cycles access was blocked
system.l2.blocked::no_targets                       0                       # number of cycles access was blocked
system.l2.avg_blocked_cycles::no_mshrs            nan                       # average number of cycles each access was blocked
system.l2.avg_blocked_cycles::no_targets          nan                       # average number of cycles each access was blocked
system.l2.writebacks::.writebacks               16540                       # number of writebacks
system.l2.writebacks::total                     16540                       # number of writebacks
system.l2.demand_mshr_misses::.switch_cpus.inst          447                       # number of demand (read+write) MSHR misses
system.l2.demand_mshr_misses::.switch_cpus.data       166487                       # number of demand (read+write) MSHR misses
system.l2.demand_mshr_misses::total            166934                       # number of demand (read+write) MSHR misses
system.l2.overall_mshr_misses::.switch_cpus.inst          447                       # number of overall MSHR misses
system.l2.overall_mshr_misses::.switch_cpus.data       166487                       # number of overall MSHR misses
system.l2.overall_mshr_misses::total           166934                       # number of overall MSHR misses
system.l2.demand_mshr_miss_latency::.switch_cpus.inst     35298000                       # number of demand (read+write) MSHR miss cycles
system.l2.demand_mshr_miss_latency::.switch_cpus.data  12034569000                       # number of demand (read+write) MSHR miss cycles
system.l2.demand_mshr_miss_latency::total  12069867000                       # number of demand (read+write) MSHR miss cycles
system.l2.overall_mshr_miss_latency::.switch_cpus.inst     35298000                       # number of overall MSHR miss cycles
system.l2.overall_mshr_miss_latency::.switch_cpus.data  12034569000                       # number of overall MSHR miss cycles
system.l2.overall_mshr_miss_latency::total  12069867000                       # number of overall MSHR miss cycles
system.l2.demand_mshr_miss_rate::.switch_cpus.inst     0.965443                       # mshr miss rate for demand accesses
system.l2.demand_mshr_miss_rate::.switch_cpus.data     0.902848                       # mshr miss rate for demand accesses
system.l2.demand_mshr_miss_rate::total       0.902980                       # mshr miss rate for demand accesses
system.l2.overall_mshr_miss_rate::.switch_cpus.inst     0.965443                       # mshr miss rate for overall accesses
system.l2.overall_mshr_miss_rate::.switch_cpus.data     0.902848                       # mshr miss rate for overall accesses
system.l2.overall_mshr_miss_rate::total      0.902980                       # mshr miss rate for overall accesses
system.l2.demand_avg_mshr_miss_latency::.switch_cpus.inst 78966.442953                       # average overall mshr miss latency
system.l2.demand_avg_mshr_miss_latency::.switch_cpus.data 72285.337594                       # average overall mshr miss latency
system.l2.demand_avg_mshr_miss_latency::total 72303.227623                       # average overall mshr miss latency
system.l2.overall_avg_mshr_miss_latency::.switch_cpus.inst 78966.442953                       # average overall mshr miss latency
system.l2.overall_avg_mshr_miss_latency::.switch_cpus.data 72285.337594                       # average overall mshr miss latency
system.l2.overall_avg_mshr_miss_latency::total 72303.227623                       # average overall mshr miss latency
system.l2.replacements                         179793                       # number of replacements
system.l2.WritebackDirty_hits::.writebacks        21042                       # number of WritebackDirty hits
system.l2.WritebackDirty_hits::total            21042                       # number of WritebackDirty hits
system.l2.WritebackDirty_accesses::.writebacks        21042                       # number of WritebackDirty accesses(hits+misses)
system.l2.WritebackDirty_accesses::total        21042                       # number of WritebackDirty accesses(hits+misses)
system.l2.WritebackClean_hits::.writebacks          172                       # number of WritebackClean hits
system.l2.WritebackClean_hits::total              172                       # number of WritebackClean hits
system.l2.WritebackClean_accesses::.writebacks          172                       # number of WritebackClean accesses(hits+misses)
system.l2.WritebackClean_accesses::total          172                       # number of WritebackClean accesses(hits+misses)
system.l2.CleanEvict_mshr_misses::.writebacks        95962                       # number of CleanEvict MSHR misses
system.l2.CleanEvict_mshr_misses::total         95962                       # number of CleanEvict MSHR misses
system.l2.CleanEvict_mshr_miss_rate::.writebacks          inf                       # mshr miss rate for CleanEvict accesses
system.l2.CleanEvict_mshr_miss_rate::total          inf                       # mshr miss rate for CleanEvict accesses
system.l2.ReadExReq_hits::.switch_cpus.data          637                       # number of ReadExReq hits
system.l2.ReadExReq_hits::total                   637                       # number of ReadExReq hits
system.l2.ReadExReq_misses::.cpu.data               1                       # number of ReadExReq misses
system.l2.ReadExReq_misses::.switch_cpus.data        11691                       # number of ReadExReq misses
system.l2.ReadExReq_misses::total               11692                       # number of ReadExReq misses
system.l2.ReadExReq_miss_latency::.switch_cpus.data    942208000                       # number of ReadExReq miss cycles
system.l2.ReadExReq_miss_latency::total     942208000                       # number of ReadExReq miss cycles
system.l2.ReadExReq_accesses::.cpu.data             1                       # number of ReadExReq accesses(hits+misses)
system.l2.ReadExReq_accesses::.switch_cpus.data        12328                       # number of ReadExReq accesses(hits+misses)
system.l2.ReadExReq_accesses::total             12329                       # number of ReadExReq accesses(hits+misses)
system.l2.ReadExReq_miss_rate::.cpu.data            1                       # miss rate for ReadExReq accesses
system.l2.ReadExReq_miss_rate::.switch_cpus.data     0.948329                       # miss rate for ReadExReq accesses
system.l2.ReadExReq_miss_rate::total         0.948333                       # miss rate for ReadExReq accesses
system.l2.ReadExReq_avg_miss_latency::.switch_cpus.data 80592.592593                       # average ReadExReq miss latency
system.l2.ReadExReq_avg_miss_latency::total 80585.699624                       # average ReadExReq miss latency
system.l2.ReadExReq_mshr_misses::.switch_cpus.data        11691                       # number of ReadExReq MSHR misses
system.l2.ReadExReq_mshr_misses::total          11691                       # number of ReadExReq MSHR misses
system.l2.ReadExReq_mshr_miss_latency::.switch_cpus.data    825298000                       # number of ReadExReq MSHR miss cycles
system.l2.ReadExReq_mshr_miss_latency::total    825298000                       # number of ReadExReq MSHR miss cycles
system.l2.ReadExReq_mshr_miss_rate::.switch_cpus.data     0.948329                       # mshr miss rate for ReadExReq accesses
system.l2.ReadExReq_mshr_miss_rate::total     0.948252                       # mshr miss rate for ReadExReq accesses
system.l2.ReadExReq_avg_mshr_miss_latency::.switch_cpus.data 70592.592593                       # average ReadExReq mshr miss latency
system.l2.ReadExReq_avg_mshr_miss_latency::total 70592.592593                       # average ReadExReq mshr miss latency
system.l2.ReadCleanReq_hits::.switch_cpus.inst           16                       # number of ReadCleanReq hits
system.l2.ReadCleanReq_hits::total                 16                       # number of ReadCleanReq hits
system.l2.ReadCleanReq_misses::.cpu.inst            2                       # number of ReadCleanReq misses
system.l2.ReadCleanReq_misses::.switch_cpus.inst          447                       # number of ReadCleanReq misses
system.l2.ReadCleanReq_misses::total              449                       # number of ReadCleanReq misses
system.l2.ReadCleanReq_miss_latency::.switch_cpus.inst     39768000                       # number of ReadCleanReq miss cycles
system.l2.ReadCleanReq_miss_latency::total     39768000                       # number of ReadCleanReq miss cycles
system.l2.ReadCleanReq_accesses::.cpu.inst            2                       # number of ReadCleanReq accesses(hits+misses)
system.l2.ReadCleanReq_accesses::.switch_cpus.inst          463                       # number of ReadCleanReq accesses(hits+misses)
system.l2.ReadCleanReq_accesses::total            465                       # number of ReadCleanReq accesses(hits+misses)
system.l2.ReadCleanReq_miss_rate::.cpu.inst            1                       # miss rate for ReadCleanReq accesses
system.l2.ReadCleanReq_miss_rate::.switch_cpus.inst     0.965443                       # miss rate for ReadCleanReq accesses
[...]
system.cpu.itb.walker.pwrStateResidencyTicks::UNDEFINED 270803877082000                       # Cumulative time (in ticks) in various power states
system.cpu.dtb_walker_cache.pwrStateResidencyTicks::UNDEFINED 270803877082000                       # Cumulative time (in ticks) in various power states
system.cpu.dtb_walker_cache.blocked_cycles::no_mshrs            0                       # number of cycles access was blocked
system.cpu.dtb_walker_cache.blocked_cycles::no_targets            0                       # number of cycles access was blocked
system.cpu.dtb_walker_cache.blocked::no_mshrs            0                       # number of cycles access was blocked
system.cpu.dtb_walker_cache.blocked::no_targets            0                       # number of cycles access was blocked
system.cpu.dtb_walker_cache.avg_blocked_cycles::no_mshrs          nan                       # average number of cycles each access was blocked
system.cpu.dtb_walker_cache.avg_blocked_cycles::no_targets          nan                       # average number of cycles each access was blocked
system.cpu.dtb_walker_cache.replacements            0                       # number of replacements
system.cpu.dtb_walker_cache.tags.pwrStateResidencyTicks::UNDEFINED 270803877082000                       # Cumulative time (in ticks) in various power states
system.cpu.dtb_walker_cache.tags.tagsinuse            0                       # Cycle average of tags in use
system.cpu.dtb_walker_cache.tags.total_refs            0                       # Total number of references to valid blocks.
system.cpu.dtb_walker_cache.tags.sampled_refs            0                       # Sample count of references to valid blocks.
system.cpu.dtb_walker_cache.tags.avg_refs          nan                       # Average number of references to valid blocks.
system.cpu.dtb_walker_cache.tags.warmup_cycle            0                       # Cycle when the warmup percentage was hit.
system.cpu.dtb_walker_cache.tags.tag_accesses            0                       # Number of tag accesses
system.cpu.dtb_walker_cache.tags.data_accesses            0                       # Number of data accesses
system.cpu.dcache.pwrStateResidencyTicks::UNDEFINED 270803877082000                       # Cumulative time (in ticks) in various power states
system.cpu.dcache.demand_hits::.cpu.data            3                       # number of demand (read+write) hits
system.cpu.dcache.demand_hits::.switch_cpus.data     10250764                       # number of demand (read+write) hits
system.cpu.dcache.demand_hits::total         10250767                       # number of demand (read+write) hits
system.cpu.dcache.overall_hits::.cpu.data            3                       # number of overall hits
system.cpu.dcache.overall_hits::.switch_cpus.data     10266836                       # number of overall hits
system.cpu.dcache.overall_hits::total        10266839                       # number of overall hits
system.cpu.dcache.demand_misses::.cpu.data            3                       # number of demand (read+write) misses
system.cpu.dcache.demand_misses::.switch_cpus.data      3061906                       # number of demand (read+write) misses
system.cpu.dcache.demand_misses::total        3061909                       # number of demand (read+write) misses
system.cpu.dcache.overall_misses::.cpu.data            3                       # number of overall misses
system.cpu.dcache.overall_misses::.switch_cpus.data      3062232                       # number of overall misses
system.cpu.dcache.overall_misses::total       3062235                       # number of overall misses
system.cpu.dcache.demand_miss_latency::.switch_cpus.data 209332296286                       # number of demand (read+write) miss cycles
system.cpu.dcache.demand_miss_latency::total 209332296286                       # number of demand (read+write) miss cycles
system.cpu.dcache.overall_miss_latency::.switch_cpus.data 209332296286                       # number of overall miss cycles
system.cpu.dcache.overall_miss_latency::total 209332296286                       # number of overall miss cycles
system.cpu.dcache.demand_accesses::.cpu.data            6                       # number of demand (read+write) accesses
system.cpu.dcache.demand_accesses::.switch_cpus.data     13312670                       # number of demand (read+write) accesses
system.cpu.dcache.demand_accesses::total     13312676                       # number of demand (read+write) accesses
system.cpu.dcache.overall_accesses::.cpu.data            6                       # number of overall (read+write) accesses
system.cpu.dcache.overall_accesses::.switch_cpus.data     13329068                       # number of overall (read+write) accesses
system.cpu.dcache.overall_accesses::total     13329074                       # number of overall (read+write) accesses
system.cpu.dcache.demand_miss_rate::.cpu.data     0.500000                       # miss rate for demand accesses
system.cpu.dcache.demand_miss_rate::.switch_cpus.data     0.229999                       # miss rate for demand accesses
system.cpu.dcache.demand_miss_rate::total     0.230000                       # miss rate for demand accesses
system.cpu.dcache.overall_miss_rate::.cpu.data     0.500000                       # miss rate for overall accesses
system.cpu.dcache.overall_miss_rate::.switch_cpus.data     0.229741                       # miss rate for overall accesses
system.cpu.dcache.overall_miss_rate::total     0.229741                       # miss rate for overall accesses
system.cpu.dcache.demand_avg_miss_latency::.switch_cpus.data 68366.663211                       # average overall miss latency
system.cpu.dcache.demand_avg_miss_latency::total 68366.596227                       # average overall miss latency
system.cpu.dcache.overall_avg_miss_latency::.switch_cpus.data 68359.385013                       # average overall miss latency
system.cpu.dcache.overall_avg_miss_latency::total 68359.318043                       # average overall miss latency
system.cpu.dcache.blocked_cycles::no_mshrs      4106560                       # number of cycles access was blocked
system.cpu.dcache.blocked_cycles::no_targets          102                       # number of cycles access was blocked
system.cpu.dcache.blocked::no_mshrs            102838                       # number of cycles access was blocked
system.cpu.dcache.blocked::no_targets               2                       # number of cycles access was blocked
system.cpu.dcache.avg_blocked_cycles::no_mshrs    39.932321                       # average number of cycles each access was blocked
system.cpu.dcache.avg_blocked_cycles::no_targets           51                       # average number of cycles each access was blocked
system.cpu.dcache.writebacks::.writebacks        84026                       # number of writebacks
system.cpu.dcache.writebacks::total             84026                       # number of writebacks
system.cpu.dcache.demand_mshr_hits::.switch_cpus.data      2307821                       # number of demand (read+write) MSHR hits
system.cpu.dcache.demand_mshr_hits::total      2307821                       # number of demand (read+write) MSHR hits
system.cpu.dcache.overall_mshr_hits::.switch_cpus.data      2307821                       # number of overall MSHR hits
system.cpu.dcache.overall_mshr_hits::total      2307821                       # number of overall MSHR hits
system.cpu.dcache.demand_mshr_misses::.switch_cpus.data       754085                       # number of demand (read+write) MSHR misses
system.cpu.dcache.demand_mshr_misses::total       754085                       # number of demand (read+write) MSHR misses
system.cpu.dcache.overall_mshr_misses::.switch_cpus.data       754242                       # number of overall MSHR misses
system.cpu.dcache.overall_mshr_misses::total       754242                       # number of overall MSHR misses
system.cpu.dcache.demand_mshr_miss_latency::.switch_cpus.data  57226636791                       # number of demand (read+write) MSHR miss cycles
system.cpu.dcache.demand_mshr_miss_latency::total  57226636791                       # number of demand (read+write) MSHR miss cycles
system.cpu.dcache.overall_mshr_miss_latency::.switch_cpus.data  57235322791                       # number of overall MSHR miss cycles
system.cpu.dcache.overall_mshr_miss_latency::total  57235322791                       # number of overall MSHR miss cycles
system.cpu.dcache.demand_mshr_miss_rate::.switch_cpus.data     0.056644                       # mshr miss rate for demand accesses
system.cpu.dcache.demand_mshr_miss_rate::total     0.056644                       # mshr miss rate for demand accesses
system.cpu.dcache.overall_mshr_miss_rate::.switch_cpus.data     0.056586                       # mshr miss rate for overall accesses
system.cpu.dcache.overall_mshr_miss_rate::total     0.056586                       # mshr miss rate for overall accesses
system.cpu.dcache.demand_avg_mshr_miss_latency::.switch_cpus.data 75888.841166                       # average overall mshr miss latency
system.cpu.dcache.demand_avg_mshr_miss_latency::total 75888.841166                       # average overall mshr miss latency
system.cpu.dcache.overall_avg_mshr_miss_latency::.switch_cpus.data 75884.560646                       # average overall mshr miss latency
system.cpu.dcache.overall_avg_mshr_miss_latency::total 75884.560646                       # average overall mshr miss latency
system.cpu.dcache.replacements                 753220                       # number of replacements
system.cpu.dcache.ReadReq_hits::.cpu.data            3                       # number of ReadReq hits
system.cpu.dcache.ReadReq_hits::.switch_cpus.data      9047711                       # number of ReadReq hits
system.cpu.dcache.ReadReq_hits::total         9047714                       # number of ReadReq hits
system.cpu.dcache.ReadReq_misses::.cpu.data            2                       # number of ReadReq misses
system.cpu.dcache.ReadReq_misses::.switch_cpus.data      3015366                       # number of ReadReq misses
system.cpu.dcache.ReadReq_misses::total       3015368                       # number of ReadReq misses
system.cpu.dcache.ReadReq_miss_latency::.switch_cpus.data 205705903000                       # number of ReadReq miss cycles
system.cpu.dcache.ReadReq_miss_latency::total 205705903000                       # number of ReadReq miss cycles
system.cpu.dcache.ReadReq_accesses::.cpu.data            5                       # number of ReadReq accesses(hits+misses)
system.cpu.dcache.ReadReq_accesses::.switch_cpus.data     12063077                       # number of ReadReq accesses(hits+misses)
system.cpu.dcache.ReadReq_accesses::total     12063082                       # number of ReadReq accesses(hits+misses)
system.cpu.dcache.ReadReq_miss_rate::.cpu.data     0.400000                       # miss rate for ReadReq accesses
system.cpu.dcache.ReadReq_miss_rate::.switch_cpus.data     0.249967                       # miss rate for ReadReq accesses
system.cpu.dcache.ReadReq_miss_rate::total     0.249967                       # miss rate for ReadReq accesses
system.cpu.dcache.ReadReq_avg_miss_latency::.switch_cpus.data 68219.215511                       # average ReadReq miss latency
system.cpu.dcache.ReadReq_avg_miss_latency::total 68219.170264                       # average ReadReq miss latency
system.cpu.dcache.ReadReq_mshr_hits::.switch_cpus.data      2307554                       # number of ReadReq MSHR hits
system.cpu.dcache.ReadReq_mshr_hits::total      2307554                       # number of ReadReq MSHR hits
system.cpu.dcache.ReadReq_mshr_misses::.switch_cpus.data       707812                       # number of ReadReq MSHR misses
system.cpu.dcache.ReadReq_mshr_misses::total       707812                       # number of ReadReq MSHR misses
system.cpu.dcache.ReadReq_mshr_miss_latency::.switch_cpus.data  53659427000                       # number of ReadReq MSHR miss cycles
system.cpu.dcache.ReadReq_mshr_miss_latency::total  53659427000                       # number of ReadReq MSHR miss cycles
system.cpu.dcache.ReadReq_mshr_miss_rate::.switch_cpus.data     0.058676                       # mshr miss rate for ReadReq accesses
system.cpu.dcache.ReadReq_mshr_miss_rate::total     0.058676                       # mshr miss rate for ReadReq accesses
system.cpu.dcache.ReadReq_avg_mshr_miss_latency::.switch_cpus.data 75810.281544                       # average ReadReq mshr miss latency
system.cpu.dcache.ReadReq_avg_mshr_miss_latency::total 75810.281544                       # average ReadReq mshr miss latency
system.cpu.dcache.WriteReq_hits::.switch_cpus.data      1203053                       # number of WriteReq hits
system.cpu.dcache.WriteReq_hits::total        1203053                       # number of WriteReq hits
system.cpu.dcache.WriteReq_misses::.cpu.data            1                       # number of WriteReq misses
system.cpu.dcache.WriteReq_misses::.switch_cpus.data        46540                       # number of WriteReq misses
system.cpu.dcache.WriteReq_misses::total        46541                       # number of WriteReq misses
system.cpu.dcache.WriteReq_miss_latency::.switch_cpus.data   3626393286                       # number of WriteReq miss cycles
system.cpu.dcache.WriteReq_miss_latency::total   3626393286                       # number of WriteReq miss cycles
system.cpu.dcache.WriteReq_accesses::.cpu.data            1                       # number of WriteReq accesses(hits+misses)
system.cpu.dcache.WriteReq_accesses::.switch_cpus.data      1249593                       # number of WriteReq accesses(hits+misses)
system.cpu.dcache.WriteReq_accesses::total      1249594                       # number of WriteReq accesses(hits+misses)
system.cpu.dcache.WriteReq_miss_rate::.cpu.data            1                       # miss rate for WriteReq accesses
system.cpu.dcache.WriteReq_miss_rate::.switch_cpus.data     0.037244                       # miss rate for WriteReq accesses
system.cpu.dcache.WriteReq_miss_rate::total     0.037245                       # miss rate for WriteReq accesses
system.cpu.dcache.WriteReq_avg_miss_latency::.switch_cpus.data 77919.924495                       # average WriteReq miss latency
system.cpu.dcache.WriteReq_avg_miss_latency::total 77918.250274                       # average WriteReq miss latency
system.cpu.dcache.WriteReq_mshr_hits::.switch_cpus.data          267                       # number of WriteReq MSHR hits
system.cpu.dcache.WriteReq_mshr_hits::total          267                       # number of WriteReq MSHR hits
system.cpu.dcache.WriteReq_mshr_misses::.switch_cpus.data        46273                       # number of WriteReq MSHR misses
system.cpu.dcache.WriteReq_mshr_misses::total        46273                       # number of WriteReq MSHR misses
system.cpu.dcache.WriteReq_mshr_miss_latency::.switch_cpus.data   3567209791                       # number of WriteReq MSHR miss cycles
system.cpu.dcache.WriteReq_mshr_miss_latency::total   3567209791                       # number of WriteReq MSHR miss cycles
system.cpu.dcache.WriteReq_mshr_miss_rate::.switch_cpus.data     0.037030                       # mshr miss rate for WriteReq accesses
system.cpu.dcache.WriteReq_mshr_miss_rate::total     0.037030                       # mshr miss rate for WriteReq accesses
system.cpu.dcache.WriteReq_avg_mshr_miss_latency::.switch_cpus.data 77090.523437                       # average WriteReq mshr miss latency
system.cpu.dcache.WriteReq_avg_mshr_miss_latency::total 77090.523437                       # average WriteReq mshr miss latency
system.cpu.dcache.SoftPFReq_hits::.switch_cpus.data        16072                       # number of SoftPFReq hits
system.cpu.dcache.SoftPFReq_hits::total         16072                       # number of SoftPFReq hits
system.cpu.dcache.SoftPFReq_misses::.switch_cpus.data          326                       # number of SoftPFReq misses
system.cpu.dcache.SoftPFReq_misses::total          326                       # number of SoftPFReq misses
system.cpu.dcache.SoftPFReq_accesses::.switch_cpus.data        16398                       # number of SoftPFReq accesses(hits+misses)
system.cpu.dcache.SoftPFReq_accesses::total        16398                       # number of SoftPFReq accesses(hits+misses)
system.cpu.dcache.SoftPFReq_miss_rate::.switch_cpus.data     0.019880                       # miss rate for SoftPFReq accesses
system.cpu.dcache.SoftPFReq_miss_rate::total     0.019880                       # miss rate for SoftPFReq accesses
system.cpu.dcache.SoftPFReq_mshr_misses::.switch_cpus.data          157                       # number of SoftPFReq MSHR misses
system.cpu.dcache.SoftPFReq_mshr_misses::total          157                       # number of SoftPFReq MSHR misses
system.cpu.dcache.SoftPFReq_mshr_miss_latency::.switch_cpus.data      8686000                       # number of SoftPFReq MSHR miss cycles
system.cpu.dcache.SoftPFReq_mshr_miss_latency::total      8686000                       # number of SoftPFReq MSHR miss cycles
system.cpu.dcache.SoftPFReq_mshr_miss_rate::.switch_cpus.data     0.009574                       # mshr miss rate for SoftPFReq accesses
system.cpu.dcache.SoftPFReq_mshr_miss_rate::total     0.009574                       # mshr miss rate for SoftPFReq accesses
system.cpu.dcache.SoftPFReq_avg_mshr_miss_latency::.switch_cpus.data 55324.840764                       # average SoftPFReq mshr miss latency
system.cpu.dcache.SoftPFReq_avg_mshr_miss_latency::total 55324.840764                       # average SoftPFReq mshr miss latency
system.cpu.dcache.tags.pwrStateResidencyTicks::UNDEFINED 270803877082000                       # Cumulative time (in ticks) in various power states
system.cpu.dcache.tags.tagsinuse             0.138262                       # Cycle average of tags in use
system.cpu.dcache.tags.total_refs            11021083                       # Total number of references to valid blocks.
system.cpu.dcache.tags.sampled_refs            754244                       # Sample count of references to valid blocks.
system.cpu.dcache.tags.avg_refs             14.612092                       # Average number of references to valid blocks.
system.cpu.dcache.tags.warmup_cycle      270767280054500                       # Cycle when the warmup percentage was hit.
system.cpu.dcache.tags.occ_blocks::.cpu.data     0.000002                       # Average occupied blocks per requestor
system.cpu.dcache.tags.occ_blocks::.switch_cpus.data     0.138260                       # Average occupied blocks per requestor
system.cpu.dcache.tags.occ_percent::.cpu.data     0.000000                       # Average percentage of cache occupancy
system.cpu.dcache.tags.occ_percent::.switch_cpus.data     0.000135                       # Average percentage of cache occupancy
system.cpu.dcache.tags.occ_percent::total     0.000135                       # Average percentage of cache occupancy
system.cpu.dcache.tags.occ_task_id_blocks::1024         1024                       # Occupied blocks per task id
system.cpu.dcache.tags.age_task_id_blocks_1024::0          203                       # Occupied blocks per task id
system.cpu.dcache.tags.age_task_id_blocks_1024::1          818                       # Occupied blocks per task id
system.cpu.dcache.tags.age_task_id_blocks_1024::3            3                       # Occupied blocks per task id
system.cpu.dcache.tags.occ_task_id_percent::1024            1                       # Percentage of cache occupancy per task id
system.cpu.dcache.tags.tag_accesses          27412392                       # Number of tag accesses
system.cpu.dcache.tags.data_accesses         27412392                       # Number of data accesses

---------- End Simulation Statistics   ----------
