
---------- Begin Simulation Statistics ----------
final_tick                               926049452278500                       # Number of ticks from beginning of simulation (restored from checkpoints and never reset)
host_inst_rate                                  28204                       # Simulator instruction rate (inst/s)
host_mem_usage                                 829676                       # Number of bytes of host memory used
host_op_rate                                    47454                       # Simulator op (including micro ops) rate (op/s)
host_seconds                                   354.56                       # Real time elapsed on the host
host_tick_rate                               27778348                       # Simulator tick rate (ticks/s)
sim_freq                                 1000000000000                       # Frequency of simulated ticks
sim_insts                                    10000009                       # Number of instructions simulated
sim_ops                                      16825012                       # Number of ops (including micro ops) simulated
sim_seconds                                  0.009849                       # Number of seconds simulated
sim_ticks                                  9848996000                       # Number of ticks simulated
system.cpu.Branches                                 3                       # Number of branches fetched
system.cpu.committedInsts                           9                       # Number of instructions committed
system.cpu.committedOps                            18                       # Number of ops (including micro ops) committed
system.cpu.dtb.rdAccesses                           2                       # TLB accesses on read requests
system.cpu.dtb.rdMisses                             0                       # TLB misses on read requests
system.cpu.dtb.wrAccesses                           0                       # TLB accesses on write requests
system.cpu.dtb.wrMisses                             0                       # TLB misses on write requests
system.cpu.idle_fraction                            0                       # Percentage of idle cycles
system.cpu.itb.rdAccesses                           0                       # TLB accesses on read requests
system.cpu.itb.rdMisses                             0                       # TLB misses on read requests
system.cpu.itb.wrAccesses                          11                       # TLB accesses on write requests
system.cpu.itb.wrMisses                             0                       # TLB misses on write requests
system.cpu.not_idle_fraction                        1                       # Percentage of non-idle cycles
system.cpu.numCycles                               20                       # number of cpu cycles simulated
system.cpu.numWorkItemsCompleted                    0                       # number of work items this cpu completed
system.cpu.numWorkItemsStarted                      0                       # number of work items this cpu started
system.cpu.num_busy_cycles                         20                       # Number of busy cycles
system.cpu.num_cc_register_reads                   15                       # number of times the CC registers were read
system.cpu.num_cc_register_writes                   8                       # number of times the CC registers were written
system.cpu.num_conditional_control_insts            3                       # number of instructions that are conditional controls
system.cpu.num_fp_alu_accesses                      0                       # Number of float alu accesses
system.cpu.num_fp_insts                             0                       # number of float instructions
system.cpu.num_fp_register_reads                    0                       # number of times the floating registers were read
system.cpu.num_fp_register_writes                   0                       # number of times the floating registers were written
system.cpu.num_func_calls                           0                       # number of times a function call or return occured
system.cpu.num_idle_cycles                          0                       # Number of idle cycles
system.cpu.num_int_alu_accesses                    18                       # Number of integer alu accesses
system.cpu.num_int_insts                           18                       # number of integer instructions
system.cpu.num_int_register_reads                  29                       # number of times the integer registers were read
system.cpu.num_int_register_writes                 15                       # number of times the integer registers were written
system.cpu.num_load_insts                           2                       # Number of load instructions
system.cpu.num_mem_refs                             2                       # number of memory refs
system.cpu.num_store_insts                          0                       # Number of store instructions
system.cpu.num_vec_alu_accesses                     0                       # Number of vector alu accesses
system.cpu.num_vec_insts                            0                       # number of vector instructions
system.cpu.num_vec_register_reads                   0                       # number of times the vector registers were read
system.cpu.num_vec_register_writes                  0                       # number of times the vector registers were written
system.cpu.op_class::No_OpClass                     0      0.00%      0.00% # Class of executed instruction
system.cpu.op_class::IntAlu                        16     88.89%     88.89% # Class of executed instruction
system.cpu.op_class::IntMult                        0      0.00%     88.89% # Class of executed instruction
system.cpu.op_class::IntDiv                         0      0.00%     88.89% # Class of executed instruction
system.cpu.op_class::FloatAdd                       0      0.00%     88.89% # Class of executed instruction
system.cpu.op_class::FloatCmp                       0      0.00%     88.89% # Class of executed instruction
system.cpu.op_class::FloatCvt                       0      0.00%     88.89% # Class of executed instruction
system.cpu.op_class::FloatMult                      0      0.00%     88.89% # Class of executed instruction
system.cpu.op_class::FloatMultAcc                   0      0.00%     88.89% # Class of executed instruction
system.cpu.op_class::FloatDiv                       0      0.00%     88.89% # Class of executed instruction
system.cpu.op_class::FloatMisc                      0      0.00%     88.89% # Class of executed instruction
system.cpu.op_class::FloatSqrt                      0      0.00%     88.89% # Class of executed instruction
system.cpu.op_class::SimdAdd                        0      0.00%     88.89% # Class of executed instruction
system.cpu.op_class::SimdAddAcc                     0      0.00%     88.89% # Class of executed instruction
system.cpu.op_class::SimdAlu                        0      0.00%     88.89% # Class of executed instruction
system.cpu.op_class::SimdCmp                        0      0.00%     88.89% # Class of executed instruction
system.cpu.op_class::SimdCvt                        0      0.00%     88.89% # Class of executed instruction
system.cpu.op_class::SimdMisc                       0      0.00%     88.89% # Class of executed instruction
system.cpu.op_class::SimdMult                       0      0.00%     88.89% # Class of executed instruction
system.cpu.op_class::SimdMultAcc                    0      0.00%     88.89% # Class of executed instruction
system.cpu.op_class::SimdShift                      0      0.00%     88.89% # Class of executed instruction
system.cpu.op_class::SimdShiftAcc                   0      0.00%     88.89% # Class of executed instruction
system.cpu.op_class::SimdDiv                        0      0.00%     88.89% # Class of executed instruction
system.cpu.op_class::SimdSqrt                       0      0.00%     88.89% # Class of executed instruction
system.cpu.op_class::SimdFloatAdd                   0      0.00%     88.89% # Class of executed instruction
system.cpu.op_class::SimdFloatAlu                   0      0.00%     88.89% # Class of executed instruction
system.cpu.op_class::SimdFloatCmp                   0      0.00%     88.89% # Class of executed instruction
system.cpu.op_class::SimdFloatCvt                   0      0.00%     88.89% # Class of executed instruction
system.cpu.op_class::SimdFloatDiv                   0      0.00%     88.89% # Class of executed instruction
system.cpu.op_class::SimdFloatMisc                  0      0.00%     88.89% # Class of executed instruction
system.cpu.op_class::SimdFloatMult                  0      0.00%     88.89% # Class of executed instruction
system.cpu.op_class::SimdFloatMultAcc               0      0.00%     88.89% # Class of executed instruction
system.cpu.op_class::SimdFloatSqrt                  0      0.00%     88.89% # Class of executed instruction
system.cpu.op_class::SimdReduceAdd                  0      0.00%     88.89% # Class of executed instruction
system.cpu.op_class::SimdReduceAlu                  0      0.00%     88.89% # Class of executed instruction
system.cpu.op_class::SimdReduceCmp                  0      0.00%     88.89% # Class of executed instruction
system.cpu.op_class::SimdFloatReduceAdd             0      0.00%     88.89% # Class of executed instruction
system.cpu.op_class::SimdFloatReduceCmp             0      0.00%     88.89% # Class of executed instruction
system.cpu.op_class::SimdAes                        0      0.00%     88.89% # Class of executed instruction
system.cpu.op_class::SimdAesMix                     0      0.00%     88.89% # Class of executed instruction
system.cpu.op_class::SimdSha1Hash                   0      0.00%     88.89% # Class of executed instruction
system.cpu.op_class::SimdSha1Hash2                  0      0.00%     88.89% # Class of executed instruction
system.cpu.op_class::SimdSha256Hash                 0      0.00%     88.89% # Class of executed instruction
system.cpu.op_class::SimdSha256Hash2                0      0.00%     88.89% # Class of executed instruction
system.cpu.op_class::SimdShaSigma2                  0      0.00%     88.89% # Class of executed instruction
system.cpu.op_class::SimdShaSigma3                  0      0.00%     88.89% # Class of executed instruction
system.cpu.op_class::SimdPredAlu                    0      0.00%     88.89% # Class of executed instruction
system.cpu.op_class::MemRead                        2     11.11%    100.00% # Class of executed instruction
system.cpu.op_class::MemWrite                       0      0.00%    100.00% # Class of executed instruction
system.cpu.op_class::FloatMemRead                   0      0.00%    100.00% # Class of executed instruction
system.cpu.op_class::FloatMemWrite                  0      0.00%    100.00% # Class of executed instruction
system.cpu.op_class::IprAccess                      0      0.00%    100.00% # Class of executed instruction
system.cpu.op_class::InstPrefetch                   0      0.00%    100.00% # Class of executed instruction
system.cpu.op_class::total                         18                       # Class of executed instruction
system.cpu.workload.numSyscalls                     0                       # Number of system calls
system.membus.snoop_filter.hit_multi_requests            0                       # Number of requests hitting in the snoop filter with multiple (>1) holders of the requested data.
system.membus.snoop_filter.hit_multi_snoops            0                       # Number of snoops hitting in the snoop filter with multiple (>1) holders of the requested data.
system.membus.snoop_filter.hit_single_requests       136270                       # Number of requests hitting in the snoop filter with a single holder of the requested data.
system.membus.snoop_filter.hit_single_snoops            0                       # Number of snoops hitting in the snoop filter with a single holder of the requested data.
system.membus.snoop_filter.tot_requests        276796                       # Total number of requests made to the snoop filter.
system.membus.snoop_filter.tot_snoops               0                       # Total number of snoops made to the snoop filter.
system.switch_cpus.branchPred.BTBCorrect            0                       # Number of correct BTB predictions (this stat may not work properly.
system.switch_cpus.branchPred.BTBHitPct      0.000000                       # BTB Hit Percentage
system.switch_cpus.branchPred.BTBHits               0                       # Number of BTB hits
system.switch_cpus.branchPred.BTBLookups      4975747                       # Number of BTB lookups
system.switch_cpus.branchPred.RASInCorrect            0                       # Number of incorrect RAS predictions.
system.switch_cpus.branchPred.condIncorrect       570100                       # Number of conditional branches incorrect
system.switch_cpus.branchPred.condPredicted      6057446                       # Number of conditional branches predicted
system.switch_cpus.branchPred.indirectHits      2823622                       # Number of indirect target hits.
system.switch_cpus.branchPred.indirectLookups      4975747                       # Number of indirect predictor lookups.
system.switch_cpus.branchPred.indirectMisses      2152125                       # Number of indirect misses.
system.switch_cpus.branchPred.lookups         6080574                       # Number of BP lookups
system.switch_cpus.branchPred.usedRAS               0                       # Number of times the RAS was used to get a target.
system.switch_cpus.branchPredindirectMispredicted       267853                       # Number of mispredicted indirect branches.
system.switch_cpus.cc_regfile_reads          16170639                       # number of cc regfile reads
system.switch_cpus.cc_regfile_writes         12018332                       # number of cc regfile writes
system.switch_cpus.commit.amos                      0                       # Number of atomic instructions committed
system.switch_cpus.commit.branchMispredicts       570100                       # The number of times a branch was mispredicted
system.switch_cpus.commit.branches            2315914                       # Number of branches committed
system.switch_cpus.commit.bw_lim_events       1007288                       # number cycles where commit BW limit reached
system.switch_cpus.commit.commitSquashedInsts     19201948                       # The number of squashed insts skipped by commit
system.switch_cpus.commit.committedInsts     10000000                       # Number of instructions committed
system.switch_cpus.commit.committedOps       16824994                       # Number of ops (including micro ops) committed
system.switch_cpus.commit.committed_per_cycle::samples     16747625                       # Number of insts commited each cycle
system.switch_cpus.commit.committed_per_cycle::mean     1.004620                       # Number of insts commited each cycle
system.switch_cpus.commit.committed_per_cycle::stdev     2.193417                       # Number of insts commited each cycle
system.switch_cpus.commit.committed_per_cycle::underflows            0      0.00%      0.00% # Number of insts commited each cycle
system.switch_cpus.commit.committed_per_cycle::0     12373046     73.88%     73.88% # Number of insts commited each cycle
system.switch_cpus.commit.committed_per_cycle::1      1212897      7.24%     81.12% # Number of insts commited each cycle
system.switch_cpus.commit.committed_per_cycle::2       796545      4.76%     85.88% # Number of insts commited each cycle
system.switch_cpus.commit.committed_per_cycle::3       498216      2.97%     88.85% # Number of insts commited each cycle
system.switch_cpus.commit.committed_per_cycle::4       256426      1.53%     90.38% # Number of insts commited each cycle
system.switch_cpus.commit.committed_per_cycle::5       317340      1.89%     92.28% # Number of insts commited each cycle
system.switch_cpus.commit.committed_per_cycle::6       147418      0.88%     93.16% # Number of insts commited each cycle
system.switch_cpus.commit.committed_per_cycle::7       138449      0.83%     93.99% # Number of insts commited each cycle
system.switch_cpus.commit.committed_per_cycle::8      1007288      6.01%    100.00% # Number of insts commited each cycle
system.switch_cpus.commit.committed_per_cycle::overflows            0      0.00%    100.00% # Number of insts commited each cycle
system.switch_cpus.commit.committed_per_cycle::min_value            0                       # Number of insts commited each cycle
system.switch_cpus.commit.committed_per_cycle::max_value            8                       # Number of insts commited each cycle
system.switch_cpus.commit.committed_per_cycle::total     16747625                       # Number of insts commited each cycle
system.switch_cpus.commit.fp_insts              36688                       # Number of committed floating point instructions.
system.switch_cpus.commit.function_calls            0                       # Number of function calls committed.
system.switch_cpus.commit.int_insts          16806537                       # Number of committed integer instructions.
system.switch_cpus.commit.loads               1871375                       # Number of loads committed
system.switch_cpus.commit.membars                   0                       # Number of memory barriers committed
system.switch_cpus.commit.op_class_0::No_OpClass        18457      0.11%      0.11% # Class of committed instruction
system.switch_cpus.commit.op_class_0::IntAlu     14350129     85.29%     85.40% # Class of committed instruction
system.switch_cpus.commit.op_class_0::IntMult        10952      0.07%     85.47% # Class of committed instruction
system.switch_cpus.commit.op_class_0::IntDiv            0      0.00%     85.47% # Class of committed instruction
system.switch_cpus.commit.op_class_0::FloatAdd            0      0.00%     85.47% # Class of committed instruction
system.switch_cpus.commit.op_class_0::FloatCmp            0      0.00%     85.47% # Class of committed instruction
system.switch_cpus.commit.op_class_0::FloatCvt            0      0.00%     85.47% # Class of committed instruction
system.switch_cpus.commit.op_class_0::FloatMult            0      0.00%     85.47% # Class of committed instruction
system.switch_cpus.commit.op_class_0::FloatMultAcc            0      0.00%     85.47% # Class of committed instruction
system.switch_cpus.commit.op_class_0::FloatDiv            0      0.00%     85.47% # Class of committed instruction
system.switch_cpus.commit.op_class_0::FloatMisc            0      0.00%     85.47% # Class of committed instruction
system.switch_cpus.commit.op_class_0::FloatSqrt            0      0.00%     85.47% # Class of committed instruction
system.switch_cpus.commit.op_class_0::SimdAdd            0      0.00%     85.47% # Class of committed instruction
system.switch_cpus.commit.op_class_0::SimdAddAcc            0      0.00%     85.47% # Class of committed instruction
system.switch_cpus.commit.op_class_0::SimdAlu            0      0.00%     85.47% # Class of committed instruction
system.switch_cpus.commit.op_class_0::SimdCmp            0      0.00%     85.47% # Class of committed instruction
system.switch_cpus.commit.op_class_0::SimdCvt            0      0.00%     85.47% # Class of committed instruction
system.switch_cpus.commit.op_class_0::SimdMisc            0      0.00%     85.47% # Class of committed instruction
system.switch_cpus.commit.op_class_0::SimdMult            0      0.00%     85.47% # Class of committed instruction
system.switch_cpus.commit.op_class_0::SimdMultAcc            0      0.00%     85.47% # Class of committed instruction
system.switch_cpus.commit.op_class_0::SimdShift            0      0.00%     85.47% # Class of committed instruction
system.switch_cpus.commit.op_class_0::SimdShiftAcc            0      0.00%     85.47% # Class of committed instruction
system.switch_cpus.commit.op_class_0::SimdDiv            0      0.00%     85.47% # Class of committed instruction
system.switch_cpus.commit.op_class_0::SimdSqrt            0      0.00%     85.47% # Class of committed instruction
system.switch_cpus.commit.op_class_0::SimdFloatAdd            0      0.00%     85.47% # Class of committed instruction
system.switch_cpus.commit.op_class_0::SimdFloatAlu            0      0.00%     85.47% # Class of committed instruction
system.switch_cpus.commit.op_class_0::SimdFloatCmp            0      0.00%     85.47% # Class of committed instruction
system.switch_cpus.commit.op_class_0::SimdFloatCvt            0      0.00%     85.47% # Class of committed instruction
system.switch_cpus.commit.op_class_0::SimdFloatDiv            0      0.00%     85.47% # Class of committed instruction
system.switch_cpus.commit.op_class_0::SimdFloatMisc            0      0.00%     85.47% # Class of committed instruction
system.switch_cpus.commit.op_class_0::SimdFloatMult            0      0.00%     85.47% # Class of committed instruction
system.switch_cpus.commit.op_class_0::SimdFloatMultAcc            0      0.00%     85.47% # Class of committed instruction
system.switch_cpus.commit.op_class_0::SimdFloatSqrt            0      0.00%     85.47% # Class of committed instruction
system.switch_cpus.commit.op_class_0::SimdReduceAdd            0      0.00%     85.47% # Class of committed instruction
system.switch_cpus.commit.op_class_0::SimdReduceAlu            0      0.00%     85.47% # Class of committed instruction
system.switch_cpus.commit.op_class_0::SimdReduceCmp            0      0.00%     85.47% # Class of committed instruction
system.switch_cpus.commit.op_class_0::SimdFloatReduceAdd            0      0.00%     85.47% # Class of committed instruction
system.switch_cpus.commit.op_class_0::SimdFloatReduceCmp            0      0.00%     85.47% # Class of committed instruction
system.switch_cpus.commit.op_class_0::SimdAes            0      0.00%     85.47% # Class of committed instruction
system.switch_cpus.commit.op_class_0::SimdAesMix            0      0.00%     85.47% # Class of committed instruction
system.switch_cpus.commit.op_class_0::SimdSha1Hash            0      0.00%     85.47% # Class of committed instruction
system.switch_cpus.commit.op_class_0::SimdSha1Hash2            0      0.00%     85.47% # Class of committed instruction
system.switch_cpus.commit.op_class_0::SimdSha256Hash            0      0.00%     85.47% # Class of committed instruction
system.switch_cpus.commit.op_class_0::SimdSha256Hash2            0      0.00%     85.47% # Class of committed instruction
system.switch_cpus.commit.op_class_0::SimdShaSigma2            0      0.00%     85.47% # Class of committed instruction
system.switch_cpus.commit.op_class_0::SimdShaSigma3            0      0.00%     85.47% # Class of committed instruction
system.switch_cpus.commit.op_class_0::SimdPredAlu            0      0.00%     85.47% # Class of committed instruction
system.switch_cpus.commit.op_class_0::MemRead      1853031     11.01%     96.48% # Class of committed instruction
system.switch_cpus.commit.op_class_0::MemWrite       555737      3.30%     99.78% # Class of committed instruction
system.switch_cpus.commit.op_class_0::FloatMemRead        18344      0.11%     99.89% # Class of committed instruction
system.switch_cpus.commit.op_class_0::FloatMemWrite        18344      0.11%    100.00% # Class of committed instruction
system.switch_cpus.commit.op_class_0::IprAccess            0      0.00%    100.00% # Class of committed instruction
system.switch_cpus.commit.op_class_0::InstPrefetch            0      0.00%    100.00% # Class of committed instruction
system.switch_cpus.commit.op_class_0::total     16824994                       # Class of committed instruction
system.switch_cpus.commit.refs                2445456                       # Number of memory references committed
system.switch_cpus.commit.swp_count                 0                       # Number of s/w prefetches committed
system.switch_cpus.commit.vec_insts                 0                       # Number of committed Vector instructions.
system.switch_cpus.committedInsts            10000000                       # Number of Instructions Simulated
system.switch_cpus.committedOps              16824994                       # Number of Ops (including micro ops) Simulated
system.switch_cpus.cpi                       1.969797                       # CPI: Cycles Per Instruction
system.switch_cpus.cpi_total                 1.969797                       # CPI: Total CPI of All Threads
system.switch_cpus.decode.BlockedCycles       8189290                       # Number of cycles decode is blocked
system.switch_cpus.decode.DecodedInsts       43188995                       # Number of instructions handled by decode
system.switch_cpus.decode.IdleCycles          3924513                       # Number of cycles decode is idle
system.switch_cpus.decode.RunCycles           6430039                       # Number of cycles decode is running
system.switch_cpus.decode.SquashCycles         571238                       # Number of cycles decode is squashing
system.switch_cpus.decode.UnblockCycles        580206                       # Number of cycles decode is unblocking
system.switch_cpus.dtb.rdAccesses             3253199                       # TLB accesses on read requests
system.switch_cpus.dtb.rdMisses                370604                       # TLB misses on read requests
system.switch_cpus.dtb.wrAccesses             1033539                       # TLB accesses on write requests
system.switch_cpus.dtb.wrMisses                  3310                       # TLB misses on write requests
system.switch_cpus.fetch.Branches             6080574                       # Number of branches that fetch encountered
system.switch_cpus.fetch.CacheLines           4651425                       # Number of cache lines fetched
system.switch_cpus.fetch.Cycles              14179480                       # Number of cycles fetch has run and was not squashing or blocked
system.switch_cpus.fetch.IcacheSquashes        171387                       # Number of outstanding Icache misses that were squashed
system.switch_cpus.fetch.Insts               29197554                       # Number of instructions fetch has processed
system.switch_cpus.fetch.SquashCycles         1142476                       # Number of cycles fetch has spent squashing
system.switch_cpus.fetch.branchRate          0.308690                       # Number of branch fetches per cycle
system.switch_cpus.fetch.icacheStallCycles      4944573                       # Number of cycles fetch is stalled on an Icache miss
system.switch_cpus.fetch.predictedBranches      2823622                       # Number of branches that fetch has predicted taken
system.switch_cpus.fetch.rate                1.482262                       # Number of inst fetches per cycle
system.switch_cpus.fetch.rateDist::samples     19695291                       # Number of instructions fetched each cycle (Total)
system.switch_cpus.fetch.rateDist::mean      2.408291                       # Number of instructions fetched each cycle (Total)
system.switch_cpus.fetch.rateDist::stdev     3.265005                       # Number of instructions fetched each cycle (Total)
system.switch_cpus.fetch.rateDist::underflows            0      0.00%      0.00% # Number of instructions fetched each cycle (Total)
system.switch_cpus.fetch.rateDist::0         11297922     57.36%     57.36% # Number of instructions fetched each cycle (Total)
system.switch_cpus.fetch.rateDist::1           682001      3.46%     60.83% # Number of instructions fetched each cycle (Total)
system.switch_cpus.fetch.rateDist::2           842246      4.28%     65.10% # Number of instructions fetched each cycle (Total)
system.switch_cpus.fetch.rateDist::3           947442      4.81%     69.91% # Number of instructions fetched each cycle (Total)
system.switch_cpus.fetch.rateDist::4           469270      2.38%     72.30% # Number of instructions fetched each cycle (Total)
system.switch_cpus.fetch.rateDist::5           424151      2.15%     74.45% # Number of instructions fetched each cycle (Total)
system.switch_cpus.fetch.rateDist::6           961697      4.88%     79.33% # Number of instructions fetched each cycle (Total)
system.switch_cpus.fetch.rateDist::7           109348      0.56%     79.89% # Number of instructions fetched each cycle (Total)
system.switch_cpus.fetch.rateDist::8          3961214     20.11%    100.00% # Number of instructions fetched each cycle (Total)
system.switch_cpus.fetch.rateDist::overflows            0      0.00%    100.00% # Number of instructions fetched each cycle (Total)
system.switch_cpus.fetch.rateDist::min_value            0                       # Number of instructions fetched each cycle (Total)
system.switch_cpus.fetch.rateDist::max_value            8                       # Number of instructions fetched each cycle (Total)
system.switch_cpus.fetch.rateDist::total     19695291                       # Number of instructions fetched each cycle (Total)
system.switch_cpus.fp_regfile_reads             18391                       # number of floating regfile reads
system.switch_cpus.fp_regfile_writes            18643                       # number of floating regfile writes
system.switch_cpus.idleCycles                    2681                       # Total number of cycles that the CPU has spent unscheduled due to idling
system.switch_cpus.iew.branchMispredicts       644469                       # Number of branch mispredicts detected at execute
system.switch_cpus.iew.exec_branches          3613472                       # Number of branches executed
system.switch_cpus.iew.exec_nop                     0                       # number of nop insts executed
system.switch_cpus.iew.exec_rate             1.575845                       # Inst execution rate
system.switch_cpus.iew.exec_refs              4720806                       # number of memory reference insts executed
system.switch_cpus.iew.exec_stores            1032420                       # Number of stores executed
system.switch_cpus.iew.exec_swp                     0                       # number of swp insts executed
system.switch_cpus.iew.iewBlockCycles         2556004                       # Number of cycles IEW is blocking
system.switch_cpus.iew.iewDispLoadInsts       3978839                       # Number of dispatched load instructions
system.switch_cpus.iew.iewDispNonSpecInsts            0                       # Number of dispatched non-speculative instructions
system.switch_cpus.iew.iewDispSquashedInsts        62467                       # Number of squashed instructions skipped by dispatch
system.switch_cpus.iew.iewDispStoreInsts      1512503                       # Number of dispatched store instructions
system.switch_cpus.iew.iewDispatchedInsts     36026974                       # Number of instructions dispatched to IQ
system.switch_cpus.iew.iewExecLoadInsts       3688386                       # Number of load instructions executed
system.switch_cpus.iew.iewExecSquashedInsts      1294486                       # Number of squashed instructions skipped in execute
system.switch_cpus.iew.iewExecutedInsts      31040960                       # Number of executed instructions
system.switch_cpus.iew.iewIQFullEvents           7187                       # Number of times the IQ has become full, causing a stall
system.switch_cpus.iew.iewIdleCycles                0                       # Number of cycles IEW is idle
system.switch_cpus.iew.iewLSQFullEvents            46                       # Number of times the LSQ has become full, causing a stall
system.switch_cpus.iew.iewSquashCycles         571238                       # Number of cycles IEW is squashing
system.switch_cpus.iew.iewUnblockCycles          9240                       # Number of cycles IEW is unblocking
system.switch_cpus.iew.lsq.thread0.blockedLoads            0                       # Number of blocked loads due to partial load-store forwarding
system.switch_cpus.iew.lsq.thread0.cacheBlocked       119504                       # Number of times an access to memory failed due to the cache being blocked
system.switch_cpus.iew.lsq.thread0.forwLoads       120189                       # Number of loads that had data forwarded from stores
system.switch_cpus.iew.lsq.thread0.ignoredResponses         1395                       # Number of memory responses ignored because the instruction is squashed
system.switch_cpus.iew.lsq.thread0.invAddrLoads            0                       # Number of loads ignored due to an invalid address
system.switch_cpus.iew.lsq.thread0.invAddrSwpfs            0                       # Number of software prefetches ignored due to an invalid address
system.switch_cpus.iew.lsq.thread0.memOrderViolation         1764                       # Number of memory ordering violations
system.switch_cpus.iew.lsq.thread0.rescheduledLoads            2                       # Number of loads that were rescheduled
system.switch_cpus.iew.lsq.thread0.squashedLoads      2107461                       # Number of loads squashed
system.switch_cpus.iew.lsq.thread0.squashedStores       938422                       # Number of stores squashed
system.switch_cpus.iew.memOrderViolationEvents         1764                       # Number of memory order violations
system.switch_cpus.iew.predictedNotTakenIncorrect       445730                       # Number of branches that were predicted not taken incorrectly
system.switch_cpus.iew.predictedTakenIncorrect       198739                       # Number of branches that were predicted taken incorrectly
system.switch_cpus.iew.wb_consumers          29797582                       # num instructions consuming a value
system.switch_cpus.iew.wb_count              30071998                       # cumulative count of insts written-back
system.switch_cpus.iew.wb_fanout             0.723541                       # average fanout of values written-back
system.switch_cpus.iew.wb_producers          21559786                       # num instructions producing a value
system.switch_cpus.iew.wb_rate               1.526655                       # insts written-back per cycle
system.switch_cpus.iew.wb_sent               30208285                       # cumulative count of insts sent to commit
system.switch_cpus.int_regfile_reads         40629445                       # number of integer regfile reads
system.switch_cpus.int_regfile_writes        25396783                       # number of integer regfile writes
system.switch_cpus.ipc                       0.507666                       # IPC: Instructions Per Cycle
system.switch_cpus.ipc_total                 0.507666                       # IPC: Total IPC of All Threads
system.switch_cpus.iq.FU_type_0::No_OpClass       126144      0.39%      0.39% # Type of FU issued
system.switch_cpus.iq.FU_type_0::IntAlu      27234171     84.22%     84.61% # Type of FU issued
system.switch_cpus.iq.FU_type_0::IntMult        13838      0.04%     84.66% # Type of FU issued
system.switch_cpus.iq.FU_type_0::IntDiv             0      0.00%     84.66% # Type of FU issued
system.switch_cpus.iq.FU_type_0::FloatAdd            0      0.00%     84.66% # Type of FU issued
system.switch_cpus.iq.FU_type_0::FloatCmp            0      0.00%     84.66% # Type of FU issued
system.switch_cpus.iq.FU_type_0::FloatCvt            0      0.00%     84.66% # Type of FU issued
system.switch_cpus.iq.FU_type_0::FloatMult            0      0.00%     84.66% # Type of FU issued
system.switch_cpus.iq.FU_type_0::FloatMultAcc            0      0.00%     84.66% # Type of FU issued
system.switch_cpus.iq.FU_type_0::FloatDiv            0      0.00%     84.66% # Type of FU issued
system.switch_cpus.iq.FU_type_0::FloatMisc            0      0.00%     84.66% # Type of FU issued
system.switch_cpus.iq.FU_type_0::FloatSqrt            0      0.00%     84.66% # Type of FU issued
system.switch_cpus.iq.FU_type_0::SimdAdd            0      0.00%     84.66% # Type of FU issued
system.switch_cpus.iq.FU_type_0::SimdAddAcc            0      0.00%     84.66% # Type of FU issued
system.switch_cpus.iq.FU_type_0::SimdAlu            0      0.00%     84.66% # Type of FU issued
system.switch_cpus.iq.FU_type_0::SimdCmp            0      0.00%     84.66% # Type of FU issued
system.switch_cpus.iq.FU_type_0::SimdCvt            0      0.00%     84.66% # Type of FU issued
system.switch_cpus.iq.FU_type_0::SimdMisc            0      0.00%     84.66% # Type of FU issued
system.switch_cpus.iq.FU_type_0::SimdMult            0      0.00%     84.66% # Type of FU issued
system.switch_cpus.iq.FU_type_0::SimdMultAcc            0      0.00%     84.66% # Type of FU issued
system.switch_cpus.iq.FU_type_0::SimdShift            0      0.00%     84.66% # Type of FU issued
system.switch_cpus.iq.FU_type_0::SimdShiftAcc            0      0.00%     84.66% # Type of FU issued
system.switch_cpus.iq.FU_type_0::SimdDiv            0      0.00%     84.66% # Type of FU issued
system.switch_cpus.iq.FU_type_0::SimdSqrt            0      0.00%     84.66% # Type of FU issued
system.switch_cpus.iq.FU_type_0::SimdFloatAdd            0      0.00%     84.66% # Type of FU issued
system.switch_cpus.iq.FU_type_0::SimdFloatAlu            0      0.00%     84.66% # Type of FU issued
system.switch_cpus.iq.FU_type_0::SimdFloatCmp            0      0.00%     84.66% # Type of FU issued
system.switch_cpus.iq.FU_type_0::SimdFloatCvt            0      0.00%     84.66% # Type of FU issued
system.switch_cpus.iq.FU_type_0::SimdFloatDiv            0      0.00%     84.66% # Type of FU issued
system.switch_cpus.iq.FU_type_0::SimdFloatMisc            0      0.00%     84.66% # Type of FU issued
system.switch_cpus.iq.FU_type_0::SimdFloatMult            0      0.00%     84.66% # Type of FU issued
system.switch_cpus.iq.FU_type_0::SimdFloatMultAcc            0      0.00%     84.66% # Type of FU issued
system.switch_cpus.iq.FU_type_0::SimdFloatSqrt            0      0.00%     84.66% # Type of FU issued
system.switch_cpus.iq.FU_type_0::SimdReduceAdd            0      0.00%     84.66% # Type of FU issued
system.switch_cpus.iq.FU_type_0::SimdReduceAlu            0      0.00%     84.66% # Type of FU issued
system.switch_cpus.iq.FU_type_0::SimdReduceCmp            0      0.00%     84.66% # Type of FU issued
system.switch_cpus.iq.FU_type_0::SimdFloatReduceAdd            0      0.00%     84.66% # Type of FU issued
system.switch_cpus.iq.FU_type_0::SimdFloatReduceCmp            0      0.00%     84.66% # Type of FU issued
system.switch_cpus.iq.FU_type_0::SimdAes            0      0.00%     84.66% # Type of FU issued
system.switch_cpus.iq.FU_type_0::SimdAesMix            0      0.00%     84.66% # Type of FU issued
system.switch_cpus.iq.FU_type_0::SimdSha1Hash            0      0.00%     84.66% # Type of FU issued
system.switch_cpus.iq.FU_type_0::SimdSha1Hash2            0      0.00%     84.66% # Type of FU issued
system.switch_cpus.iq.FU_type_0::SimdSha256Hash            0      0.00%     84.66% # Type of FU issued
system.switch_cpus.iq.FU_type_0::SimdSha256Hash2            0      0.00%     84.66% # Type of FU issued
system.switch_cpus.iq.FU_type_0::SimdShaSigma2            0      0.00%     84.66% # Type of FU issued
system.switch_cpus.iq.FU_type_0::SimdShaSigma3            0      0.00%     84.66% # Type of FU issued
system.switch_cpus.iq.FU_type_0::SimdPredAlu            0      0.00%     84.66% # Type of FU issued
system.switch_cpus.iq.FU_type_0::MemRead      3866237     11.96%     96.61% # Type of FU issued
system.switch_cpus.iq.FU_type_0::MemWrite      1057286      3.27%     99.88% # Type of FU issued
system.switch_cpus.iq.FU_type_0::FloatMemRead        19346      0.06%     99.94% # Type of FU issued
system.switch_cpus.iq.FU_type_0::FloatMemWrite        18431      0.06%    100.00% # Type of FU issued
system.switch_cpus.iq.FU_type_0::IprAccess            0      0.00%    100.00% # Type of FU issued
system.switch_cpus.iq.FU_type_0::InstPrefetch            0      0.00%    100.00% # Type of FU issued
system.switch_cpus.iq.FU_type_0::total       32335453                       # Type of FU issued
system.switch_cpus.iq.fp_alu_accesses           38363                       # Number of floating point alu accesses
system.switch_cpus.iq.fp_inst_queue_reads        76160                       # Number of floating instruction queue reads
system.switch_cpus.iq.fp_inst_queue_wakeup_accesses        36831                       # Number of floating instruction queue wakeup accesses
system.switch_cpus.iq.fp_inst_queue_writes        49014                       # Number of floating instruction queue writes
system.switch_cpus.iq.fu_busy_cnt              481675                       # FU busy when requested
system.switch_cpus.iq.fu_busy_rate           0.014896                       # FU busy rate (busy events/executed inst)
system.switch_cpus.iq.fu_full::No_OpClass            0      0.00%      0.00% # attempts to use FU when none available
system.switch_cpus.iq.fu_full::IntAlu          423778     87.98%     87.98% # attempts to use FU when none available
system.switch_cpus.iq.fu_full::IntMult              0      0.00%     87.98% # attempts to use FU when none available
system.switch_cpus.iq.fu_full::IntDiv               0      0.00%     87.98% # attempts to use FU when none available
system.switch_cpus.iq.fu_full::FloatAdd             0      0.00%     87.98% # attempts to use FU when none available
system.switch_cpus.iq.fu_full::FloatCmp             0      0.00%     87.98% # attempts to use FU when none available
system.switch_cpus.iq.fu_full::FloatCvt             0      0.00%     87.98% # attempts to use FU when none available
system.switch_cpus.iq.fu_full::FloatMult            0      0.00%     87.98% # attempts to use FU when none available
system.switch_cpus.iq.fu_full::FloatMultAcc            0      0.00%     87.98% # attempts to use FU when none available
system.switch_cpus.iq.fu_full::FloatDiv             0      0.00%     87.98% # attempts to use FU when none available
system.switch_cpus.iq.fu_full::FloatMisc            0      0.00%     87.98% # attempts to use FU when none available
system.switch_cpus.iq.fu_full::FloatSqrt            0      0.00%     87.98% # attempts to use FU when none available
system.switch_cpus.iq.fu_full::SimdAdd              0      0.00%     87.98% # attempts to use FU when none available
system.switch_cpus.iq.fu_full::SimdAddAcc            0      0.00%     87.98% # attempts to use FU when none available
system.switch_cpus.iq.fu_full::SimdAlu              0      0.00%     87.98% # attempts to use FU when none available
system.switch_cpus.iq.fu_full::SimdCmp              0      0.00%     87.98% # attempts to use FU when none available
system.switch_cpus.iq.fu_full::SimdCvt              0      0.00%     87.98% # attempts to use FU when none available
system.switch_cpus.iq.fu_full::SimdMisc             0      0.00%     87.98% # attempts to use FU when none available
system.switch_cpus.iq.fu_full::SimdMult             0      0.00%     87.98% # attempts to use FU when none available
system.switch_cpus.iq.fu_full::SimdMultAcc            0      0.00%     87.98% # attempts to use FU when none available
system.switch_cpus.iq.fu_full::SimdShift            0      0.00%     87.98% # attempts to use FU when none available
system.switch_cpus.iq.fu_full::SimdShiftAcc            0      0.00%     87.98% # attempts to use FU when none available
system.switch_cpus.iq.fu_full::SimdDiv              0      0.00%     87.98% # attempts to use FU when none available
system.switch_cpus.iq.fu_full::SimdSqrt             0      0.00%     87.98% # attempts to use FU when none available
system.switch_cpus.iq.fu_full::SimdFloatAdd            0      0.00%     87.98% # attempts to use FU when none available
system.switch_cpus.iq.fu_full::SimdFloatAlu            0      0.00%     87.98% # attempts to use FU when none available
system.switch_cpus.iq.fu_full::SimdFloatCmp            0      0.00%     87.98% # attempts to use FU when none available
system.switch_cpus.iq.fu_full::SimdFloatCvt            0      0.00%     87.98% # attempts to use FU when none available
system.switch_cpus.iq.fu_full::SimdFloatDiv            0      0.00%     87.98% # attempts to use FU when none available
system.switch_cpus.iq.fu_full::SimdFloatMisc            0      0.00%     87.98% # attempts to use FU when none available
system.switch_cpus.iq.fu_full::SimdFloatMult            0      0.00%     87.98% # attempts to use FU when none available
system.switch_cpus.iq.fu_full::SimdFloatMultAcc            0      0.00%     87.98% # attempts to use FU when none available
system.switch_cpus.iq.fu_full::SimdFloatSqrt            0      0.00%     87.98% # attempts to use FU when none available
system.switch_cpus.iq.fu_full::SimdReduceAdd            0      0.00%     87.98% # attempts to use FU when none available
system.switch_cpus.iq.fu_full::SimdReduceAlu            0      0.00%     87.98% # attempts to use FU when none available
system.switch_cpus.iq.fu_full::SimdReduceCmp            0      0.00%     87.98% # attempts to use FU when none available
system.switch_cpus.iq.fu_full::SimdFloatReduceAdd            0      0.00%     87.98% # attempts to use FU when none available
system.switch_cpus.iq.fu_full::SimdFloatReduceCmp            0      0.00%     87.98% # attempts to use FU when none available
system.switch_cpus.iq.fu_full::SimdAes              0      0.00%     87.98% # attempts to use FU when none available
system.switch_cpus.iq.fu_full::SimdAesMix            0      0.00%     87.98% # attempts to use FU when none available
system.switch_cpus.iq.fu_full::SimdSha1Hash            0      0.00%     87.98% # attempts to use FU when none available
system.switch_cpus.iq.fu_full::SimdSha1Hash2            0      0.00%     87.98% # attempts to use FU when none available
system.switch_cpus.iq.fu_full::SimdSha256Hash            0      0.00%     87.98% # attempts to use FU when none available
system.switch_cpus.iq.fu_full::SimdSha256Hash2            0      0.00%     87.98% # attempts to use FU when none available
system.switch_cpus.iq.fu_full::SimdShaSigma2            0      0.00%     87.98% # attempts to use FU when none available
system.switch_cpus.iq.fu_full::SimdShaSigma3            0      0.00%     87.98% # attempts to use FU when none available
system.switch_cpus.iq.fu_full::SimdPredAlu            0      0.00%     87.98% # attempts to use FU when none available
system.switch_cpus.iq.fu_full::MemRead          57137     11.86%     99.84% # attempts to use FU when none available
system.switch_cpus.iq.fu_full::MemWrite           174      0.04%     99.88% # attempts to use FU when none available
system.switch_cpus.iq.fu_full::FloatMemRead          557      0.12%     99.99% # attempts to use FU when none available
system.switch_cpus.iq.fu_full::FloatMemWrite           29      0.01%    100.00% # attempts to use FU when none available
system.switch_cpus.iq.fu_full::IprAccess            0      0.00%    100.00% # attempts to use FU when none available
system.switch_cpus.iq.fu_full::InstPrefetch            0      0.00%    100.00% # attempts to use FU when none available
system.switch_cpus.iq.int_alu_accesses       32652621                       # Number of integer alu accesses
system.switch_cpus.iq.int_inst_queue_reads     84881928                       # Number of integer instruction queue reads
system.switch_cpus.iq.int_inst_queue_wakeup_accesses     30035167                       # Number of integer instruction queue wakeup accesses
system.switch_cpus.iq.int_inst_queue_writes     55181489                       # Number of integer instruction queue writes
system.switch_cpus.iq.iqInstsAdded           36026974                       # Number of instructions added to the IQ (excludes non-spec)
system.switch_cpus.iq.iqInstsIssued          32335453                       # Number of instructions issued
system.switch_cpus.iq.iqSquashedInstsExamined     19201948                       # Number of squashed instructions iterated over during squash; mainly for profiling
system.switch_cpus.iq.iqSquashedInstsIssued       110223                       # Number of squashed instructions issued
system.switch_cpus.iq.iqSquashedOperandsExamined     19129001                       # Number of squashed operands that are examined and possibly removed from graph
system.switch_cpus.iq.issued_per_cycle::samples     19695291                       # Number of insts issued each cycle
system.switch_cpus.iq.issued_per_cycle::mean     1.641786                       # Number of insts issued each cycle
system.switch_cpus.iq.issued_per_cycle::stdev     2.223246                       # Number of insts issued each cycle
system.switch_cpus.iq.issued_per_cycle::underflows            0      0.00%      0.00% # Number of insts issued each cycle
system.switch_cpus.iq.issued_per_cycle::0     10979537     55.75%     55.75% # Number of insts issued each cycle
system.switch_cpus.iq.issued_per_cycle::1      1119294      5.68%     61.43% # Number of insts issued each cycle
system.switch_cpus.iq.issued_per_cycle::2      1599317      8.12%     69.55% # Number of insts issued each cycle
system.switch_cpus.iq.issued_per_cycle::3      1548384      7.86%     77.41% # Number of insts issued each cycle
system.switch_cpus.iq.issued_per_cycle::4      1541712      7.83%     85.24% # Number of insts issued each cycle
system.switch_cpus.iq.issued_per_cycle::5      1188546      6.03%     91.27% # Number of insts issued each cycle
system.switch_cpus.iq.issued_per_cycle::6       949642      4.82%     96.10% # Number of insts issued each cycle
system.switch_cpus.iq.issued_per_cycle::7       585929      2.97%     99.07% # Number of insts issued each cycle
system.switch_cpus.iq.issued_per_cycle::8       182930      0.93%    100.00% # Number of insts issued each cycle
system.switch_cpus.iq.issued_per_cycle::overflows            0      0.00%    100.00% # Number of insts issued each cycle
system.switch_cpus.iq.issued_per_cycle::min_value            0                       # Number of insts issued each cycle
system.switch_cpus.iq.issued_per_cycle::max_value            8                       # Number of insts issued each cycle
system.switch_cpus.iq.issued_per_cycle::total     19695291                       # Number of insts issued each cycle
system.switch_cpus.iq.rate                   1.641563                       # Inst issue rate
system.switch_cpus.iq.vec_alu_accesses              0                       # Number of vector alu accesses
system.switch_cpus.iq.vec_inst_queue_reads            0                       # Number of vector instruction queue reads
system.switch_cpus.iq.vec_inst_queue_wakeup_accesses            0                       # Number of vector instruction queue wakeup accesses
system.switch_cpus.iq.vec_inst_queue_writes            0                       # Number of vector instruction queue writes
system.switch_cpus.itb.rdAccesses                   0                       # TLB accesses on read requests
system.switch_cpus.itb.rdMisses                     0                       # TLB misses on read requests
system.switch_cpus.itb.wrAccesses             4651425                       # TLB accesses on write requests
system.switch_cpus.itb.wrMisses                     3                       # TLB misses on write requests
system.switch_cpus.memDep0.conflictingLoads       478680                       # Number of conflicting loads.
system.switch_cpus.memDep0.conflictingStores       575240                       # Number of conflicting stores.
system.switch_cpus.memDep0.insertedLoads      3978839                       # Number of loads inserted to the mem dependence unit.
system.switch_cpus.memDep0.insertedStores      1512503                       # Number of stores inserted to the mem dependence unit.
system.switch_cpus.misc_regfile_reads        12839512                       # number of misc regfile reads
system.switch_cpus.misc_regfile_writes              1                       # number of misc regfile writes
system.switch_cpus.numCycles                 19697972                       # number of cpu cycles simulated
system.switch_cpus.numWorkItemsCompleted            0                       # number of work items this cpu completed
system.switch_cpus.numWorkItemsStarted              0                       # number of work items this cpu started
system.switch_cpus.rename.BlockCycles         7887579                       # Number of cycles rename is blocking
system.switch_cpus.rename.CommittedMaps      20843697                       # Number of HB maps that are committed
system.switch_cpus.rename.IQFullEvents          97360                       # Number of times rename has blocked due to IQ full
system.switch_cpus.rename.IdleCycles          4340040                       # Number of cycles rename is idle
system.switch_cpus.rename.LQFullEvents              5                       # Number of times rename has blocked due to LQ full
system.switch_cpus.rename.ROBFullEvents        226039                       # Number of times rename has blocked due to ROB full
system.switch_cpus.rename.RenameLookups      99443574                       # Number of register rename lookups that rename has made
system.switch_cpus.rename.RenamedInsts       40616221                       # Number of instructions processed by rename
system.switch_cpus.rename.RenamedOperands     50125623                       # Number of destination operands rename has renamed
system.switch_cpus.rename.RunCycles           6463924                       # Number of cycles rename is running
system.switch_cpus.rename.SQFullEvents            326                       # Number of times rename has blocked due to SQ full
system.switch_cpus.rename.SquashCycles         571238                       # Number of cycles rename is squashing
system.switch_cpus.rename.UnblockCycles        432505                       # Number of cycles rename is unblocking
system.switch_cpus.rename.UndoneMaps         29281875                       # Number of HB maps that are undone due to squashing
system.switch_cpus.rename.fp_rename_lookups        22814                       # Number of floating rename lookups
system.switch_cpus.rename.int_rename_lookups     57178234                       # Number of integer rename lookups
system.switch_cpus.rename.serializeStallCycles            0                       # count of cycles rename stalled for serializing inst
system.switch_cpus.rename.serializingInsts            0                       # count of serializing insts renamed
system.switch_cpus.rename.skidInsts           1593116                       # count of insts added to the skid buffer
system.switch_cpus.rename.tempSerializingInsts            0                       # count of temporary serializing insts renamed
system.switch_cpus.rob.rob_reads             51767279                       # The number of ROB reads
system.switch_cpus.rob.rob_writes            75022286                       # The number of ROB writes
system.switch_cpus.timesIdled                      27                       # Number of times that the entire CPU went into an idle state and unscheduled itself
system.tol2bus.snoop_filter.hit_multi_requests            0                       # Number of requests hitting in the snoop filter with multiple (>1) holders of the requested data.
system.tol2bus.snoop_filter.hit_multi_snoops            0                       # Number of snoops hitting in the snoop filter with multiple (>1) holders of the requested data.
system.tol2bus.snoop_filter.hit_single_requests       296571                       # Number of requests hitting in the snoop filter with a single holder of the requested data.
system.tol2bus.snoop_filter.hit_single_snoops        68622                       # Number of snoops hitting in the snoop filter with a single holder of the requested data.
system.tol2bus.snoop_filter.tot_requests       594217                       # Total number of requests made to the snoop filter.
system.tol2bus.snoop_filter.tot_snoops          68622                       # Total number of snoops made to the snoop filter.
system.membus.pwrStateResidencyTicks::UNDEFINED 926049452278500                       # Cumulative time (in ticks) in various power states
system.membus.trans_dist::ReadResp             140506                       # Transaction distribution
system.membus.trans_dist::WritebackDirty         5945                       # Transaction distribution
system.membus.trans_dist::CleanEvict           130325                       # Transaction distribution
system.membus.trans_dist::ReadExReq                19                       # Transaction distribution
system.membus.trans_dist::ReadExResp               19                       # Transaction distribution
system.membus.trans_dist::ReadSharedReq        140507                       # Transaction distribution
system.membus.pkt_count_system.l2.mem_side::system.mem_ctrls.port       417321                       # Packet count per connected master and slave (bytes)
system.membus.pkt_count_system.l2.mem_side::total       417321                       # Packet count per connected master and slave (bytes)
system.membus.pkt_count::total                 417321                       # Packet count per connected master and slave (bytes)
system.membus.pkt_size_system.l2.mem_side::system.mem_ctrls.port      9374080                       # Cumulative packet size per connected master and slave (bytes)
system.membus.pkt_size_system.l2.mem_side::total      9374080                       # Cumulative packet size per connected master and slave (bytes)
system.membus.pkt_size::total                 9374080                       # Cumulative packet size per connected master and slave (bytes)
system.membus.snoops                                0                       # Total snoops (count)
system.membus.snoopTraffic                          0                       # Total snoop traffic (bytes)
system.membus.snoop_fanout::samples            140526                       # Request fanout histogram
system.membus.snoop_fanout::mean                    0                       # Request fanout histogram
system.membus.snoop_fanout::stdev                   0                       # Request fanout histogram
system.membus.snoop_fanout::underflows              0      0.00%      0.00% # Request fanout histogram
system.membus.snoop_fanout::0                  140526    100.00%    100.00% # Request fanout histogram
system.membus.snoop_fanout::1                       0      0.00%    100.00% # Request fanout histogram
system.membus.snoop_fanout::overflows               0      0.00%    100.00% # Request fanout histogram
system.membus.snoop_fanout::min_value               0                       # Request fanout histogram
system.membus.snoop_fanout::max_value               0                       # Request fanout histogram
system.membus.snoop_fanout::total              140526                       # Request fanout histogram
system.membus.reqLayer2.occupancy           333748000                       # Layer occupancy (ticks)
system.membus.reqLayer2.utilization               3.4                       # Layer utilization (%)
system.membus.respLayer1.occupancy          754688250                       # Layer occupancy (ticks)
system.membus.respLayer1.utilization              7.7                       # Layer utilization (%)
system.switch_cpus.pwrStateResidencyTicks::OFF   9848996000                       # Cumulative time (in ticks) in various power states
system.switch_cpus.dtb.walker.pwrStateResidencyTicks::UNDEFINED 926049452278500                       # Cumulative time (in ticks) in various power states
system.switch_cpus.itb.walker.pwrStateResidencyTicks::UNDEFINED 926049452278500                       # Cumulative time (in ticks) in various power states
system.tol2bus.pwrStateResidencyTicks::UNDEFINED 926049452278500                       # Cumulative time (in ticks) in various power states
system.tol2bus.trans_dist::ReadResp            297093                       # Transaction distribution
system.tol2bus.trans_dist::WritebackDirty        22932                       # Transaction distribution
system.tol2bus.trans_dist::CleanEvict          413528                       # Transaction distribution
system.tol2bus.trans_dist::ReadExReq              552                       # Transaction distribution
system.tol2bus.trans_dist::ReadExResp             552                       # Transaction distribution
system.tol2bus.trans_dist::ReadCleanReq            50                       # Transaction distribution
system.tol2bus.trans_dist::ReadSharedReq       297044                       # Transaction distribution
system.tol2bus.pkt_count_system.cpu.icache.mem_side::system.l2.cpu_side          100                       # Packet count per connected master and slave (bytes)
system.tol2bus.pkt_count_system.cpu.dcache.mem_side::system.l2.cpu_side       891762                       # Packet count per connected master and slave (bytes)
system.tol2bus.pkt_count::total                891862                       # Packet count per connected master and slave (bytes)
system.tol2bus.pkt_size_system.cpu.icache.mem_side::system.l2.cpu_side         3200                       # Cumulative packet size per connected master and slave (bytes)
system.tol2bus.pkt_size_system.cpu.dcache.mem_side::system.l2.cpu_side     20133248                       # Cumulative packet size per connected master and slave (bytes)
system.tol2bus.pkt_size::total               20136448                       # Cumulative packet size per connected master and slave (bytes)
system.tol2bus.snoops                          139889                       # Total snoops (count)
system.tol2bus.snoopTraffic                    380480                       # Total snoop traffic (bytes)
system.tol2bus.snoop_fanout::samples           437535                       # Request fanout histogram
system.tol2bus.snoop_fanout::mean            0.156838                       # Request fanout histogram
system.tol2bus.snoop_fanout::stdev           0.363648                       # Request fanout histogram
system.tol2bus.snoop_fanout::underflows             0      0.00%      0.00% # Request fanout histogram
system.tol2bus.snoop_fanout::0                 368913     84.32%     84.32% # Request fanout histogram
system.tol2bus.snoop_fanout::1                  68622     15.68%    100.00% # Request fanout histogram
system.tol2bus.snoop_fanout::2                      0      0.00%    100.00% # Request fanout histogram
system.tol2bus.snoop_fanout::3                      0      0.00%    100.00% # Request fanout histogram
system.tol2bus.snoop_fanout::4                      0      0.00%    100.00% # Request fanout histogram
system.tol2bus.snoop_fanout::overflows              0      0.00%    100.00% # Request fanout histogram
system.tol2bus.snoop_fanout::min_value              0                       # Request fanout histogram
system.tol2bus.snoop_fanout::max_value              1                       # Request fanout histogram
system.tol2bus.snoop_fanout::total             437535                       # Request fanout histogram
system.tol2bus.reqLayer0.occupancy          314093500                       # Layer occupancy (ticks)
system.tol2bus.reqLayer0.utilization              3.2                       # Layer utilization (%)
system.tol2bus.respLayer1.occupancy         446389500                       # Layer occupancy (ticks)
system.tol2bus.respLayer1.utilization             4.5                       # Layer utilization (%)
system.tol2bus.respLayer0.occupancy             72000                       # Layer occupancy (ticks)
system.tol2bus.respLayer0.utilization             0.0                       # Layer utilization (%)
system.voltage_domain.voltage                       1                       # Voltage in Volts
system.clk_domain.clock                          1000                       # Clock period in ticks
system.l2.pwrStateResidencyTicks::UNDEFINED 926049452278500                       # Cumulative time (in ticks) in various power states
system.l2.demand_hits::.switch_cpus.data       157120                       # number of demand (read+write) hits
system.l2.demand_hits::total                   157120                       # number of demand (read+write) hits
system.l2.overall_hits::.switch_cpus.data       157120                       # number of overall hits
system.l2.overall_hits::total                  157120                       # number of overall hits
system.l2.demand_misses::.cpu.inst                  2                       # number of demand (read+write) misses
system.l2.demand_misses::.cpu.data                  2                       # number of demand (read+write) misses
system.l2.demand_misses::.switch_cpus.inst           48                       # number of demand (read+write) misses
system.l2.demand_misses::.switch_cpus.data       140474                       # number of demand (read+write) misses
system.l2.demand_misses::total                 140526                       # number of demand (read+write) misses
system.l2.overall_misses::.cpu.inst                 2                       # number of overall misses
system.l2.overall_misses::.cpu.data                 2                       # number of overall misses
system.l2.overall_misses::.switch_cpus.inst           48                       # number of overall misses
system.l2.overall_misses::.switch_cpus.data       140474                       # number of overall misses
system.l2.overall_misses::total                140526                       # number of overall misses
system.l2.demand_miss_latency::.switch_cpus.inst      3812000                       # number of demand (read+write) miss cycles
system.l2.demand_miss_latency::.switch_cpus.data  12389927500                       # number of demand (read+write) miss cycles
system.l2.demand_miss_latency::total      12393739500                       # number of demand (read+write) miss cycles
system.l2.overall_miss_latency::.switch_cpus.inst      3812000                       # number of overall miss cycles
system.l2.overall_miss_latency::.switch_cpus.data  12389927500                       # number of overall miss cycles
system.l2.overall_miss_latency::total     12393739500                       # number of overall miss cycles
system.l2.demand_accesses::.cpu.inst                2                       # number of demand (read+write) accesses
system.l2.demand_accesses::.cpu.data                2                       # number of demand (read+write) accesses
system.l2.demand_accesses::.switch_cpus.inst           48                       # number of demand (read+write) accesses
system.l2.demand_accesses::.switch_cpus.data       297594                       # number of demand (read+write) accesses
system.l2.demand_accesses::total               297646                       # number of demand (read+write) accesses
system.l2.overall_accesses::.cpu.inst               2                       # number of overall (read+write) accesses
system.l2.overall_accesses::.cpu.data               2                       # number of overall (read+write) accesses
system.l2.overall_accesses::.switch_cpus.inst           48                       # number of overall (read+write) accesses
system.l2.overall_accesses::.switch_cpus.data       297594                       # number of overall (read+write) accesses
system.l2.overall_accesses::total              297646                       # number of overall (read+write) accesses
system.l2.demand_miss_rate::.cpu.inst               1                       # miss rate for demand accesses
system.l2.demand_miss_rate::.cpu.data               1                       # miss rate for demand accesses
system.l2.demand_miss_rate::.switch_cpus.inst            1                       # miss rate for demand accesses
system.l2.demand_miss_rate::.switch_cpus.data     0.472032                       # miss rate for demand accesses
system.l2.demand_miss_rate::total            0.472125                       # miss rate for demand accesses
system.l2.overall_miss_rate::.cpu.inst              1                       # miss rate for overall accesses
system.l2.overall_miss_rate::.cpu.data              1                       # miss rate for overall accesses
system.l2.overall_miss_rate::.switch_cpus.inst            1                       # miss rate for overall accesses
system.l2.overall_miss_rate::.switch_cpus.data     0.472032                       # miss rate for overall accesses
system.l2.overall_miss_rate::total           0.472125                       # miss rate for overall accesses
system.l2.demand_avg_miss_latency::.switch_cpus.inst 79416.666667                       # average overall miss latency
system.l2.demand_avg_miss_latency::.switch_cpus.data 88200.859234                       # average overall miss latency
system.l2.demand_avg_miss_latency::total 88195.348192                       # average overall miss latency
system.l2.overall_avg_miss_latency::.switch_cpus.inst 79416.666667                       # average overall miss latency
system.l2.overall_avg_miss_latency::.switch_cpus.data 88200.859234                       # average overall miss latency
system.l2.overall_avg_miss_latency::total 88195.348192                       # average overall miss latency
system.l2.blocked_cycles::no_mshrs                  0                       # number of cycles access was blocked
system.l2.blocked_cycles::no_targets                0                       # number of cycles access was blocked
system.l2.blocked::no_mshrs                         0                       # number of cycles access was blocked
system.l2.blocked::no_targets                       0                       # number of cycles access was blocked
system.l2.avg_blocked_cycles::no_mshrs            nan                       # average number of cycles each access was blocked
system.l2.avg_blocked_cycles::no_targets          nan                       # average number of cycles each access was blocked
system.l2.writebacks::.writebacks                5945                       # number of writebacks
system.l2.writebacks::total                      5945                       # number of writebacks
system.l2.demand_mshr_misses::.switch_cpus.inst           48                       # number of demand (read+write) MSHR misses
system.l2.demand_mshr_misses::.switch_cpus.data       140474                       # number of demand (read+write) MSHR misses
system.l2.demand_mshr_misses::total            140522                       # number of demand (read+write) MSHR misses
system.l2.overall_mshr_misses::.switch_cpus.inst           48                       # number of overall MSHR misses
system.l2.overall_mshr_misses::.switch_cpus.data       140474                       # number of overall MSHR misses
system.l2.overall_mshr_misses::total           140522                       # number of overall MSHR misses
system.l2.demand_mshr_miss_latency::.switch_cpus.inst      3332000                       # number of demand (read+write) MSHR miss cycles
system.l2.demand_mshr_miss_latency::.switch_cpus.data  10985197500                       # number of demand (read+write) MSHR miss cycles
system.l2.demand_mshr_miss_latency::total  10988529500                       # number of demand (read+write) MSHR miss cycles
system.l2.overall_mshr_miss_latency::.switch_cpus.inst      3332000                       # number of overall MSHR miss cycles
system.l2.overall_mshr_miss_latency::.switch_cpus.data  10985197500                       # number of overall MSHR miss cycles
system.l2.overall_mshr_miss_latency::total  10988529500                       # number of overall MSHR miss cycles
system.l2.demand_mshr_miss_rate::.switch_cpus.inst            1                       # mshr miss rate for demand accesses
system.l2.demand_mshr_miss_rate::.switch_cpus.data     0.472032                       # mshr miss rate for demand accesses
system.l2.demand_mshr_miss_rate::total       0.472111                       # mshr miss rate for demand accesses
system.l2.overall_mshr_miss_rate::.switch_cpus.inst            1                       # mshr miss rate for overall accesses
system.l2.overall_mshr_miss_rate::.switch_cpus.data     0.472032                       # mshr miss rate for overall accesses
system.l2.overall_mshr_miss_rate::total      0.472111                       # mshr miss rate for overall accesses
system.l2.demand_avg_mshr_miss_latency::.switch_cpus.inst 69416.666667                       # average overall mshr miss latency
system.l2.demand_avg_mshr_miss_latency::.switch_cpus.data 78200.930421                       # average overall mshr miss latency
system.l2.demand_avg_mshr_miss_latency::total 78197.929862                       # average overall mshr miss latency
system.l2.overall_avg_mshr_miss_latency::.switch_cpus.inst 69416.666667                       # average overall mshr miss latency
system.l2.overall_avg_mshr_miss_latency::.switch_cpus.data 78200.930421                       # average overall mshr miss latency
system.l2.overall_avg_mshr_miss_latency::total 78197.929862                       # average overall mshr miss latency
system.l2.replacements                         139889                       # number of replacements
system.l2.WritebackDirty_hits::.writebacks        16987                       # number of WritebackDirty hits
system.l2.WritebackDirty_hits::total            16987                       # number of WritebackDirty hits
system.l2.WritebackDirty_accesses::.writebacks        16987                       # number of WritebackDirty accesses(hits+misses)
system.l2.WritebackDirty_accesses::total        16987                       # number of WritebackDirty accesses(hits+misses)
system.l2.CleanEvict_mshr_misses::.writebacks        65003                       # number of CleanEvict MSHR misses
system.l2.CleanEvict_mshr_misses::total         65003                       # number of CleanEvict MSHR misses
system.l2.CleanEvict_mshr_miss_rate::.writebacks          inf                       # mshr miss rate for CleanEvict accesses
system.l2.CleanEvict_mshr_miss_rate::total          inf                       # mshr miss rate for CleanEvict accesses
system.l2.ReadExReq_hits::.switch_cpus.data          533                       # number of ReadExReq hits
system.l2.ReadExReq_hits::total                   533                       # number of ReadExReq hits
system.l2.ReadExReq_misses::.switch_cpus.data           19                       # number of ReadExReq misses
system.l2.ReadExReq_misses::total                  19                       # number of ReadExReq misses
system.l2.ReadExReq_miss_latency::.switch_cpus.data       859500                       # number of ReadExReq miss cycles
system.l2.ReadExReq_miss_latency::total        859500                       # number of ReadExReq miss cycles
system.l2.ReadExReq_accesses::.switch_cpus.data          552                       # number of ReadExReq accesses(hits+misses)
system.l2.ReadExReq_accesses::total               552                       # number of ReadExReq accesses(hits+misses)
system.l2.ReadExReq_miss_rate::.switch_cpus.data     0.034420                       # miss rate for ReadExReq accesses
system.l2.ReadExReq_miss_rate::total         0.034420                       # miss rate for ReadExReq accesses
system.l2.ReadExReq_avg_miss_latency::.switch_cpus.data 45236.842105                       # average ReadExReq miss latency
system.l2.ReadExReq_avg_miss_latency::total 45236.842105                       # average ReadExReq miss latency
system.l2.ReadExReq_mshr_misses::.switch_cpus.data           19                       # number of ReadExReq MSHR misses
system.l2.ReadExReq_mshr_misses::total             19                       # number of ReadExReq MSHR misses
system.l2.ReadExReq_mshr_miss_latency::.switch_cpus.data       669500                       # number of ReadExReq MSHR miss cycles
system.l2.ReadExReq_mshr_miss_latency::total       669500                       # number of ReadExReq MSHR miss cycles
system.l2.ReadExReq_mshr_miss_rate::.switch_cpus.data     0.034420                       # mshr miss rate for ReadExReq accesses
system.l2.ReadExReq_mshr_miss_rate::total     0.034420                       # mshr miss rate for ReadExReq accesses
system.l2.ReadExReq_avg_mshr_miss_latency::.switch_cpus.data 35236.842105                       # average ReadExReq mshr miss latency
system.l2.ReadExReq_avg_mshr_miss_latency::total 35236.842105                       # average ReadExReq mshr miss latency
system.l2.ReadCleanReq_misses::.cpu.inst            2                       # number of ReadCleanReq misses
system.l2.ReadCleanReq_misses::.switch_cpus.inst           48                       # number of ReadCleanReq misses
system.l2.ReadCleanReq_misses::total               50                       # number of ReadCleanReq misses
system.l2.ReadCleanReq_miss_latency::.switch_cpus.inst      3812000                       # number of ReadCleanReq miss cycles
system.l2.ReadCleanReq_miss_latency::total      3812000                       # number of ReadCleanReq miss cycles
system.l2.ReadCleanReq_accesses::.cpu.inst            2                       # number of ReadCleanReq accesses(hits+misses)
system.l2.ReadCleanReq_accesses::.switch_cpus.inst           48                       # number of ReadCleanReq accesses(hits+misses)
system.l2.ReadCleanReq_accesses::total             50                       # number of ReadCleanReq accesses(hits+misses)
system.l2.ReadCleanReq_miss_rate::.cpu.inst            1                       # miss rate for ReadCleanReq accesses
system.l2.ReadCleanReq_miss_rate::.switch_cpus.inst            1                       # miss rate for ReadCleanReq accesses
system.l2.ReadCleanReq_miss_rate::total             1                       # miss rate for ReadCleanReq accesses
system.l2.ReadCleanReq_avg_miss_latency::.switch_cpus.inst 79416.666667                       # average ReadCleanReq miss latency
system.l2.ReadCleanReq_avg_miss_latency::total        76240                       # average ReadCleanReq miss latency
system.l2.ReadCleanReq_mshr_misses::.switch_cpus.inst           48                       # number of ReadCleanReq MSHR misses
system.l2.ReadCleanReq_mshr_misses::total           48                       # number of ReadCleanReq MSHR misses
system.l2.ReadCleanReq_mshr_miss_latency::.switch_cpus.inst      3332000                       # number of ReadCleanReq MSHR miss cycles
system.l2.ReadCleanReq_mshr_miss_latency::total      3332000                       # number of ReadCleanReq MSHR miss cycles
system.l2.ReadCleanReq_mshr_miss_rate::.switch_cpus.inst            1                       # mshr miss rate for ReadCleanReq accesses
system.l2.ReadCleanReq_mshr_miss_rate::total     0.960000                       # mshr miss rate for ReadCleanReq accesses
system.l2.ReadCleanReq_avg_mshr_miss_latency::.switch_cpus.inst 69416.666667                       # average ReadCleanReq mshr miss latency
system.l2.ReadCleanReq_avg_mshr_miss_latency::total 69416.666667                       # average ReadCleanReq mshr miss latency
system.l2.ReadSharedReq_hits::.switch_cpus.data       156587                       # number of ReadSharedReq hits
system.l2.ReadSharedReq_hits::total            156587                       # number of ReadSharedReq hits
system.l2.ReadSharedReq_misses::.cpu.data            2                       # number of ReadSharedReq misses
[...]
system.cpu.icache.tags.occ_task_id_percent::1024     0.111328                       # Percentage of cache occupancy per task id
system.cpu.icache.tags.tag_accesses          30094535                       # Number of tag accesses
system.cpu.icache.tags.data_accesses         30094535                       # Number of data accesses
system.cpu.dtb.walker.pwrStateResidencyTicks::UNDEFINED 926117431737000                       # Cumulative time (in ticks) in various power states
system.cpu.interrupts.clk_domain.clock           8000                       # Clock period in ticks
system.cpu.itb_walker_cache.pwrStateResidencyTicks::UNDEFINED 926117431737000                       # Cumulative time (in ticks) in various power states
system.cpu.itb_walker_cache.blocked_cycles::no_mshrs            0                       # number of cycles access was blocked
system.cpu.itb_walker_cache.blocked_cycles::no_targets            0                       # number of cycles access was blocked
system.cpu.itb_walker_cache.blocked::no_mshrs            0                       # number of cycles access was blocked
system.cpu.itb_walker_cache.blocked::no_targets            0                       # number of cycles access was blocked
system.cpu.itb_walker_cache.avg_blocked_cycles::no_mshrs          nan                       # average number of cycles each access was blocked
system.cpu.itb_walker_cache.avg_blocked_cycles::no_targets          nan                       # average number of cycles each access was blocked
system.cpu.itb_walker_cache.replacements            0                       # number of replacements
system.cpu.itb_walker_cache.tags.pwrStateResidencyTicks::UNDEFINED 926117431737000                       # Cumulative time (in ticks) in various power states
system.cpu.itb_walker_cache.tags.tagsinuse            0                       # Cycle average of tags in use
system.cpu.itb_walker_cache.tags.total_refs            0                       # Total number of references to valid blocks.
system.cpu.itb_walker_cache.tags.sampled_refs            0                       # Sample count of references to valid blocks.
system.cpu.itb_walker_cache.tags.avg_refs          nan                       # Average number of references to valid blocks.
system.cpu.itb_walker_cache.tags.warmup_cycle            0                       # Cycle when the warmup percentage was hit.
system.cpu.itb_walker_cache.tags.tag_accesses            0                       # Number of tag accesses
system.cpu.itb_walker_cache.tags.data_accesses            0                       # Number of data accesses
system.cpu.itb.walker.pwrStateResidencyTicks::UNDEFINED 926117431737000                       # Cumulative time (in ticks) in various power states
system.cpu.dtb_walker_cache.pwrStateResidencyTicks::UNDEFINED 926117431737000                       # Cumulative time (in ticks) in various power states
system.cpu.dtb_walker_cache.blocked_cycles::no_mshrs            0                       # number of cycles access was blocked
system.cpu.dtb_walker_cache.blocked_cycles::no_targets            0                       # number of cycles access was blocked
system.cpu.dtb_walker_cache.blocked::no_mshrs            0                       # number of cycles access was blocked
system.cpu.dtb_walker_cache.blocked::no_targets            0                       # number of cycles access was blocked
system.cpu.dtb_walker_cache.avg_blocked_cycles::no_mshrs          nan                       # average number of cycles each access was blocked
system.cpu.dtb_walker_cache.avg_blocked_cycles::no_targets          nan                       # average number of cycles each access was blocked
system.cpu.dtb_walker_cache.replacements            0                       # number of replacements
system.cpu.dtb_walker_cache.tags.pwrStateResidencyTicks::UNDEFINED 926117431737000                       # Cumulative time (in ticks) in various power states
system.cpu.dtb_walker_cache.tags.tagsinuse            0                       # Cycle average of tags in use
system.cpu.dtb_walker_cache.tags.total_refs            0                       # Total number of references to valid blocks.
system.cpu.dtb_walker_cache.tags.sampled_refs            0                       # Sample count of references to valid blocks.
system.cpu.dtb_walker_cache.tags.avg_refs          nan                       # Average number of references to valid blocks.
system.cpu.dtb_walker_cache.tags.warmup_cycle            0                       # Cycle when the warmup percentage was hit.
system.cpu.dtb_walker_cache.tags.tag_accesses            0                       # Number of tag accesses
system.cpu.dtb_walker_cache.tags.data_accesses            0                       # Number of data accesses
system.cpu.dcache.pwrStateResidencyTicks::UNDEFINED 926117431737000                       # Cumulative time (in ticks) in various power states
system.cpu.dcache.demand_hits::.switch_cpus.data     12223233                       # number of demand (read+write) hits
system.cpu.dcache.demand_hits::total         12223233                       # number of demand (read+write) hits
system.cpu.dcache.overall_hits::.switch_cpus.data     12223233                       # number of overall hits
system.cpu.dcache.overall_hits::total        12223233                       # number of overall hits
system.cpu.dcache.demand_misses::.cpu.data            2                       # number of demand (read+write) misses
system.cpu.dcache.demand_misses::.switch_cpus.data      1614312                       # number of demand (read+write) misses
system.cpu.dcache.demand_misses::total        1614314                       # number of demand (read+write) misses
system.cpu.dcache.overall_misses::.cpu.data            2                       # number of overall misses
system.cpu.dcache.overall_misses::.switch_cpus.data      1614312                       # number of overall misses
system.cpu.dcache.overall_misses::total       1614314                       # number of overall misses
system.cpu.dcache.demand_miss_latency::.switch_cpus.data 108434594000                       # number of demand (read+write) miss cycles
system.cpu.dcache.demand_miss_latency::total 108434594000                       # number of demand (read+write) miss cycles
system.cpu.dcache.overall_miss_latency::.switch_cpus.data 108434594000                       # number of overall miss cycles
system.cpu.dcache.overall_miss_latency::total 108434594000                       # number of overall miss cycles
system.cpu.dcache.demand_accesses::.cpu.data            2                       # number of demand (read+write) accesses
system.cpu.dcache.demand_accesses::.switch_cpus.data     13837545                       # number of demand (read+write) accesses
system.cpu.dcache.demand_accesses::total     13837547                       # number of demand (read+write) accesses
system.cpu.dcache.overall_accesses::.cpu.data            2                       # number of overall (read+write) accesses
system.cpu.dcache.overall_accesses::.switch_cpus.data     13837545                       # number of overall (read+write) accesses
system.cpu.dcache.overall_accesses::total     13837547                       # number of overall (read+write) accesses
system.cpu.dcache.demand_miss_rate::.cpu.data            1                       # miss rate for demand accesses
system.cpu.dcache.demand_miss_rate::.switch_cpus.data     0.116662                       # miss rate for demand accesses
system.cpu.dcache.demand_miss_rate::total     0.116662                       # miss rate for demand accesses
system.cpu.dcache.overall_miss_rate::.cpu.data            1                       # miss rate for overall accesses
system.cpu.dcache.overall_miss_rate::.switch_cpus.data     0.116662                       # miss rate for overall accesses
system.cpu.dcache.overall_miss_rate::total     0.116662                       # miss rate for overall accesses
system.cpu.dcache.demand_avg_miss_latency::.switch_cpus.data 67170.778635                       # average overall miss latency
system.cpu.dcache.demand_avg_miss_latency::total 67170.695416                       # average overall miss latency
system.cpu.dcache.overall_avg_miss_latency::.switch_cpus.data 67170.778635                       # average overall miss latency
system.cpu.dcache.overall_avg_miss_latency::total 67170.695416                       # average overall miss latency
system.cpu.dcache.blocked_cycles::no_mshrs     12164303                       # number of cycles access was blocked
system.cpu.dcache.blocked_cycles::no_targets         3963                       # number of cycles access was blocked
system.cpu.dcache.blocked::no_mshrs            341479                       # number of cycles access was blocked
system.cpu.dcache.blocked::no_targets              73                       # number of cycles access was blocked
system.cpu.dcache.avg_blocked_cycles::no_mshrs    35.622404                       # average number of cycles each access was blocked
system.cpu.dcache.avg_blocked_cycles::no_targets    54.287671                       # average number of cycles each access was blocked
system.cpu.dcache.writebacks::.writebacks       530970                       # number of writebacks
system.cpu.dcache.writebacks::total            530970                       # number of writebacks
system.cpu.dcache.demand_mshr_hits::.switch_cpus.data       315346                       # number of demand (read+write) MSHR hits
system.cpu.dcache.demand_mshr_hits::total       315346                       # number of demand (read+write) MSHR hits
system.cpu.dcache.overall_mshr_hits::.switch_cpus.data       315346                       # number of overall MSHR hits
system.cpu.dcache.overall_mshr_hits::total       315346                       # number of overall MSHR hits
system.cpu.dcache.demand_mshr_misses::.switch_cpus.data      1298966                       # number of demand (read+write) MSHR misses
system.cpu.dcache.demand_mshr_misses::total      1298966                       # number of demand (read+write) MSHR misses
system.cpu.dcache.overall_mshr_misses::.switch_cpus.data      1298966                       # number of overall MSHR misses
system.cpu.dcache.overall_mshr_misses::total      1298966                       # number of overall MSHR misses
system.cpu.dcache.demand_mshr_miss_latency::.switch_cpus.data  93823281000                       # number of demand (read+write) MSHR miss cycles
system.cpu.dcache.demand_mshr_miss_latency::total  93823281000                       # number of demand (read+write) MSHR miss cycles
system.cpu.dcache.overall_mshr_miss_latency::.switch_cpus.data  93823281000                       # number of overall MSHR miss cycles
system.cpu.dcache.overall_mshr_miss_latency::total  93823281000                       # number of overall MSHR miss cycles
system.cpu.dcache.demand_mshr_miss_rate::.switch_cpus.data     0.093873                       # mshr miss rate for demand accesses
system.cpu.dcache.demand_mshr_miss_rate::total     0.093873                       # mshr miss rate for demand accesses
system.cpu.dcache.overall_mshr_miss_rate::.switch_cpus.data     0.093873                       # mshr miss rate for overall accesses
system.cpu.dcache.overall_mshr_miss_rate::total     0.093873                       # mshr miss rate for overall accesses
system.cpu.dcache.demand_avg_mshr_miss_latency::.switch_cpus.data 72229.204614                       # average overall mshr miss latency
system.cpu.dcache.demand_avg_mshr_miss_latency::total 72229.204614                       # average overall mshr miss latency
system.cpu.dcache.overall_avg_mshr_miss_latency::.switch_cpus.data 72229.204614                       # average overall mshr miss latency
system.cpu.dcache.overall_avg_mshr_miss_latency::total 72229.204614                       # average overall mshr miss latency
system.cpu.dcache.replacements                1297944                       # number of replacements
system.cpu.dcache.ReadReq_hits::.switch_cpus.data     10222637                       # number of ReadReq hits
system.cpu.dcache.ReadReq_hits::total        10222637                       # number of ReadReq hits
system.cpu.dcache.ReadReq_misses::.cpu.data            2                       # number of ReadReq misses
system.cpu.dcache.ReadReq_misses::.switch_cpus.data      1129179                       # number of ReadReq misses
system.cpu.dcache.ReadReq_misses::total       1129181                       # number of ReadReq misses
system.cpu.dcache.ReadReq_miss_latency::.switch_cpus.data  63406871000                       # number of ReadReq miss cycles
system.cpu.dcache.ReadReq_miss_latency::total  63406871000                       # number of ReadReq miss cycles
system.cpu.dcache.ReadReq_accesses::.cpu.data            2                       # number of ReadReq accesses(hits+misses)
system.cpu.dcache.ReadReq_accesses::.switch_cpus.data     11351816                       # number of ReadReq accesses(hits+misses)
system.cpu.dcache.ReadReq_accesses::total     11351818                       # number of ReadReq accesses(hits+misses)
system.cpu.dcache.ReadReq_miss_rate::.cpu.data            1                       # miss rate for ReadReq accesses
system.cpu.dcache.ReadReq_miss_rate::.switch_cpus.data     0.099471                       # miss rate for ReadReq accesses
system.cpu.dcache.ReadReq_miss_rate::total     0.099471                       # miss rate for ReadReq accesses
system.cpu.dcache.ReadReq_avg_miss_latency::.switch_cpus.data 56153.073162                       # average ReadReq miss latency
system.cpu.dcache.ReadReq_avg_miss_latency::total 56152.973704                       # average ReadReq miss latency
system.cpu.dcache.ReadReq_mshr_hits::.switch_cpus.data       315340                       # number of ReadReq MSHR hits
system.cpu.dcache.ReadReq_mshr_hits::total       315340                       # number of ReadReq MSHR hits
system.cpu.dcache.ReadReq_mshr_misses::.switch_cpus.data       813839                       # number of ReadReq MSHR misses
system.cpu.dcache.ReadReq_mshr_misses::total       813839                       # number of ReadReq MSHR misses
system.cpu.dcache.ReadReq_mshr_miss_latency::.switch_cpus.data  49280786000                       # number of ReadReq MSHR miss cycles
system.cpu.dcache.ReadReq_mshr_miss_latency::total  49280786000                       # number of ReadReq MSHR miss cycles
system.cpu.dcache.ReadReq_mshr_miss_rate::.switch_cpus.data     0.071692                       # mshr miss rate for ReadReq accesses
system.cpu.dcache.ReadReq_mshr_miss_rate::total     0.071692                       # mshr miss rate for ReadReq accesses
system.cpu.dcache.ReadReq_avg_mshr_miss_latency::.switch_cpus.data 60553.482937                       # average ReadReq mshr miss latency
system.cpu.dcache.ReadReq_avg_mshr_miss_latency::total 60553.482937                       # average ReadReq mshr miss latency
system.cpu.dcache.WriteReq_hits::.switch_cpus.data      2000596                       # number of WriteReq hits
system.cpu.dcache.WriteReq_hits::total        2000596                       # number of WriteReq hits
system.cpu.dcache.WriteReq_misses::.switch_cpus.data       485133                       # number of WriteReq misses
system.cpu.dcache.WriteReq_misses::total       485133                       # number of WriteReq misses
system.cpu.dcache.WriteReq_miss_latency::.switch_cpus.data  45027723000                       # number of WriteReq miss cycles
system.cpu.dcache.WriteReq_miss_latency::total  45027723000                       # number of WriteReq miss cycles
system.cpu.dcache.WriteReq_accesses::.switch_cpus.data      2485729                       # number of WriteReq accesses(hits+misses)
system.cpu.dcache.WriteReq_accesses::total      2485729                       # number of WriteReq accesses(hits+misses)
system.cpu.dcache.WriteReq_miss_rate::.switch_cpus.data     0.195167                       # miss rate for WriteReq accesses
system.cpu.dcache.WriteReq_miss_rate::total     0.195167                       # miss rate for WriteReq accesses
system.cpu.dcache.WriteReq_avg_miss_latency::.switch_cpus.data 92815.213560                       # average WriteReq miss latency
system.cpu.dcache.WriteReq_avg_miss_latency::total 92815.213560                       # average WriteReq miss latency
system.cpu.dcache.WriteReq_mshr_hits::.switch_cpus.data            6                       # number of WriteReq MSHR hits
system.cpu.dcache.WriteReq_mshr_hits::total            6                       # number of WriteReq MSHR hits
system.cpu.dcache.WriteReq_mshr_misses::.switch_cpus.data       485127                       # number of WriteReq MSHR misses
system.cpu.dcache.WriteReq_mshr_misses::total       485127                       # number of WriteReq MSHR misses
system.cpu.dcache.WriteReq_mshr_miss_latency::.switch_cpus.data  44542495000                       # number of WriteReq MSHR miss cycles
system.cpu.dcache.WriteReq_mshr_miss_latency::total  44542495000                       # number of WriteReq MSHR miss cycles
system.cpu.dcache.WriteReq_mshr_miss_rate::.switch_cpus.data     0.195165                       # mshr miss rate for WriteReq accesses
system.cpu.dcache.WriteReq_mshr_miss_rate::total     0.195165                       # mshr miss rate for WriteReq accesses
system.cpu.dcache.WriteReq_avg_mshr_miss_latency::.switch_cpus.data 91816.153296                       # average WriteReq mshr miss latency
system.cpu.dcache.WriteReq_avg_mshr_miss_latency::total 91816.153296                       # average WriteReq mshr miss latency
system.cpu.dcache.tags.pwrStateResidencyTicks::UNDEFINED 926117431737000                       # Cumulative time (in ticks) in various power states
system.cpu.dcache.tags.tagsinuse             0.086008                       # Cycle average of tags in use
system.cpu.dcache.tags.total_refs            13522201                       # Total number of references to valid blocks.
system.cpu.dcache.tags.sampled_refs           1298968                       # Sample count of references to valid blocks.
system.cpu.dcache.tags.avg_refs             10.409957                       # Average number of references to valid blocks.
system.cpu.dcache.tags.warmup_cycle      926039603283000                       # Cycle when the warmup percentage was hit.
system.cpu.dcache.tags.occ_blocks::.cpu.data     0.000000                       # Average occupied blocks per requestor
system.cpu.dcache.tags.occ_blocks::.switch_cpus.data     0.086008                       # Average occupied blocks per requestor
system.cpu.dcache.tags.occ_percent::.cpu.data     0.000000                       # Average percentage of cache occupancy
system.cpu.dcache.tags.occ_percent::.switch_cpus.data     0.000084                       # Average percentage of cache occupancy
system.cpu.dcache.tags.occ_percent::total     0.000084                       # Average percentage of cache occupancy
system.cpu.dcache.tags.occ_task_id_blocks::1024         1024                       # Occupied blocks per task id
system.cpu.dcache.tags.age_task_id_blocks_1024::0          124                       # Occupied blocks per task id
system.cpu.dcache.tags.age_task_id_blocks_1024::1          727                       # Occupied blocks per task id
system.cpu.dcache.tags.age_task_id_blocks_1024::2          169                       # Occupied blocks per task id
system.cpu.dcache.tags.age_task_id_blocks_1024::3            4                       # Occupied blocks per task id
system.cpu.dcache.tags.occ_task_id_percent::1024            1                       # Percentage of cache occupancy per task id
system.cpu.dcache.tags.tag_accesses          28974062                       # Number of tag accesses
system.cpu.dcache.tags.data_accesses         28974062                       # Number of data accesses

---------- End Simulation Statistics   ----------
