
---------- Begin Simulation Statistics ----------
final_tick                               258564809752000                       # Number of ticks from beginning of simulation (restored from checkpoints and never reset)
host_inst_rate                                  11382                       # Simulator instruction rate (inst/s)
host_mem_usage                                 866292                       # Number of bytes of host memory used
host_op_rate                                    20775                       # Simulator op (including micro ops) rate (op/s)
host_seconds                                   878.59                       # Real time elapsed on the host
host_tick_rate                              116103975                       # Simulator tick rate (ticks/s)
sim_freq                                 1000000000000                       # Frequency of simulated ticks
sim_insts                                    10000009                       # Number of instructions simulated
sim_ops                                      18252470                       # Number of ops (including micro ops) simulated
sim_seconds                                  0.102008                       # Number of seconds simulated
sim_ticks                                102008207000                       # Number of ticks simulated
system.cpu.Branches                                 2                       # Number of branches fetched
system.cpu.committedInsts                           9                       # Number of instructions committed
system.cpu.committedOps                            16                       # Number of ops (including micro ops) committed
system.cpu.dtb.rdAccesses                           5                       # TLB accesses on read requests
system.cpu.dtb.rdMisses                             0                       # TLB misses on read requests
system.cpu.dtb.wrAccesses                           0                       # TLB accesses on write requests
system.cpu.dtb.wrMisses                             0                       # TLB misses on write requests
system.cpu.idle_fraction                            0                       # Percentage of idle cycles
system.cpu.itb.rdAccesses                           0                       # TLB accesses on read requests
system.cpu.itb.rdMisses                             0                       # TLB misses on read requests
system.cpu.itb.wrAccesses                          13                       # TLB accesses on write requests
system.cpu.itb.wrMisses                             0                       # TLB misses on write requests
system.cpu.not_idle_fraction                        1                       # Percentage of non-idle cycles
system.cpu.numCycles                               20                       # number of cpu cycles simulated
system.cpu.numWorkItemsCompleted                    0                       # number of work items this cpu completed
system.cpu.numWorkItemsStarted                      0                       # number of work items this cpu started
system.cpu.num_busy_cycles                         20                       # Number of busy cycles
system.cpu.num_cc_register_reads                   11                       # number of times the CC registers were read
system.cpu.num_cc_register_writes                   8                       # number of times the CC registers were written
system.cpu.num_conditional_control_insts            2                       # number of instructions that are conditional controls
system.cpu.num_fp_alu_accesses                      0                       # Number of float alu accesses
system.cpu.num_fp_insts                             0                       # number of float instructions
system.cpu.num_fp_register_reads                    0                       # number of times the floating registers were read
system.cpu.num_fp_register_writes                   0                       # number of times the floating registers were written
system.cpu.num_func_calls                           0                       # number of times a function call or return occured
system.cpu.num_idle_cycles                          0                       # Number of idle cycles
system.cpu.num_int_alu_accesses                    16                       # Number of integer alu accesses
system.cpu.num_int_insts                           16                       # number of integer instructions
system.cpu.num_int_register_reads                  32                       # number of times the integer registers were read
system.cpu.num_int_register_writes                 14                       # number of times the integer registers were written
system.cpu.num_load_insts                           5                       # Number of load instructions
system.cpu.num_mem_refs                             5                       # number of memory refs
system.cpu.num_store_insts                          0                       # Number of store instructions
system.cpu.num_vec_alu_accesses                     0                       # Number of vector alu accesses
system.cpu.num_vec_insts                            0                       # number of vector instructions
system.cpu.num_vec_register_reads                   0                       # number of times the vector registers were read
system.cpu.num_vec_register_writes                  0                       # number of times the vector registers were written
system.cpu.op_class::No_OpClass                     0      0.00%      0.00% # Class of executed instruction
system.cpu.op_class::IntAlu                        11     68.75%     68.75% # Class of executed instruction
system.cpu.op_class::IntMult                        0      0.00%     68.75% # Class of executed instruction
system.cpu.op_class::IntDiv                         0      0.00%     68.75% # Class of executed instruction
system.cpu.op_class::FloatAdd                       0      0.00%     68.75% # Class of executed instruction
system.cpu.op_class::FloatCmp                       0      0.00%     68.75% # Class of executed instruction
system.cpu.op_class::FloatCvt                       0      0.00%     68.75% # Class of executed instruction
system.cpu.op_class::FloatMult                      0      0.00%     68.75% # Class of executed instruction
system.cpu.op_class::FloatMultAcc                   0      0.00%     68.75% # Class of executed instruction
system.cpu.op_class::FloatDiv                       0      0.00%     68.75% # Class of executed instruction
system.cpu.op_class::FloatMisc                      0      0.00%     68.75% # Class of executed instruction
system.cpu.op_class::FloatSqrt                      0      0.00%     68.75% # Class of executed instruction
system.cpu.op_class::SimdAdd                        0      0.00%     68.75% # Class of executed instruction
system.cpu.op_class::SimdAddAcc                     0      0.00%     68.75% # Class of executed instruction
system.cpu.op_class::SimdAlu                        0      0.00%     68.75% # Class of executed instruction
system.cpu.op_class::SimdCmp                        0      0.00%     68.75% # Class of executed instruction
system.cpu.op_class::SimdCvt                        0      0.00%     68.75% # Class of executed instruction
system.cpu.op_class::SimdMisc                       0      0.00%     68.75% # Class of executed instruction
system.cpu.op_class::SimdMult                       0      0.00%     68.75% # Class of executed instruction
system.cpu.op_class::SimdMultAcc                    0      0.00%     68.75% # Class of executed instruction
system.cpu.op_class::SimdShift                      0      0.00%     68.75% # Class of executed instruction
system.cpu.op_class::SimdShiftAcc                   0      0.00%     68.75% # Class of executed instruction
system.cpu.op_class::SimdDiv                        0      0.00%     68.75% # Class of executed instruction
system.cpu.op_class::SimdSqrt                       0      0.00%     68.75% # Class of executed instruction
system.cpu.op_class::SimdFloatAdd                   0      0.00%     68.75% # Class of executed instruction
system.cpu.op_class::SimdFloatAlu                   0      0.00%     68.75% # Class of executed instruction
system.cpu.op_class::SimdFloatCmp                   0      0.00%     68.75% # Class of executed instruction
system.cpu.op_class::SimdFloatCvt                   0      0.00%     68.75% # Class of executed instruction
system.cpu.op_class::SimdFloatDiv                   0      0.00%     68.75% # Class of executed instruction
system.cpu.op_class::SimdFloatMisc                  0      0.00%     68.75% # Class of executed instruction
system.cpu.op_class::SimdFloatMult                  0      0.00%     68.75% # Class of executed instruction
system.cpu.op_class::SimdFloatMultAcc               0      0.00%     68.75% # Class of executed instruction
system.cpu.op_class::SimdFloatSqrt                  0      0.00%     68.75% # Class of executed instruction
system.cpu.op_class::SimdReduceAdd                  0      0.00%     68.75% # Class of executed instruction
system.cpu.op_class::SimdReduceAlu                  0      0.00%     68.75% # Class of executed instruction
system.cpu.op_class::SimdReduceCmp                  0      0.00%     68.75% # Class of executed instruction
system.cpu.op_class::SimdFloatReduceAdd             0      0.00%     68.75% # Class of executed instruction
system.cpu.op_class::SimdFloatReduceCmp             0      0.00%     68.75% # Class of executed instruction
system.cpu.op_class::SimdAes                        0      0.00%     68.75% # Class of executed instruction
system.cpu.op_class::SimdAesMix                     0      0.00%     68.75% # Class of executed instruction
system.cpu.op_class::SimdSha1Hash                   0      0.00%     68.75% # Class of executed instruction
system.cpu.op_class::SimdSha1Hash2                  0      0.00%     68.75% # Class of executed instruction
system.cpu.op_class::SimdSha256Hash                 0      0.00%     68.75% # Class of executed instruction
system.cpu.op_class::SimdSha256Hash2                0      0.00%     68.75% # Class of executed instruction
system.cpu.op_class::SimdShaSigma2                  0      0.00%     68.75% # Class of executed instruction
system.cpu.op_class::SimdShaSigma3                  0      0.00%     68.75% # Class of executed instruction
system.cpu.op_class::SimdPredAlu                    0      0.00%     68.75% # Class of executed instruction
system.cpu.op_class::MemRead                        5     31.25%    100.00% # Class of executed instruction
system.cpu.op_class::MemWrite                       0      0.00%    100.00% # Class of executed instruction
system.cpu.op_class::FloatMemRead                   0      0.00%    100.00% # Class of executed instruction
system.cpu.op_class::FloatMemWrite                  0      0.00%    100.00% # Class of executed instruction
system.cpu.op_class::IprAccess                      0      0.00%    100.00% # Class of executed instruction
system.cpu.op_class::InstPrefetch                   0      0.00%    100.00% # Class of executed instruction
system.cpu.op_class::total                         16                       # Class of executed instruction
system.cpu.workload.numSyscalls                     0                       # Number of system calls
system.membus.snoop_filter.hit_multi_requests            0                       # Number of requests hitting in the snoop filter with multiple (>1) holders of the requested data.
system.membus.snoop_filter.hit_multi_snoops            0                       # Number of snoops hitting in the snoop filter with multiple (>1) holders of the requested data.
system.membus.snoop_filter.hit_single_requests      2705899                       # Number of requests hitting in the snoop filter with a single holder of the requested data.
system.membus.snoop_filter.hit_single_snoops            0                       # Number of snoops hitting in the snoop filter with a single holder of the requested data.
system.membus.snoop_filter.tot_requests       5414277                       # Total number of requests made to the snoop filter.
system.membus.snoop_filter.tot_snoops               0                       # Total number of snoops made to the snoop filter.
system.switch_cpus.branchPred.BTBCorrect            0                       # Number of correct BTB predictions (this stat may not work properly.
system.switch_cpus.branchPred.BTBHitPct      0.000000                       # BTB Hit Percentage
system.switch_cpus.branchPred.BTBHits               0                       # Number of BTB hits
system.switch_cpus.branchPred.BTBLookups       941220                       # Number of BTB lookups
system.switch_cpus.branchPred.RASInCorrect            0                       # Number of incorrect RAS predictions.
system.switch_cpus.branchPred.condIncorrect         9782                       # Number of conditional branches incorrect
system.switch_cpus.branchPred.condPredicted      2675193                       # Number of conditional branches predicted
system.switch_cpus.branchPred.indirectHits       935997                       # Number of indirect target hits.
system.switch_cpus.branchPred.indirectLookups       941220                       # Number of indirect predictor lookups.
system.switch_cpus.branchPred.indirectMisses         5223                       # Number of indirect misses.
system.switch_cpus.branchPred.lookups         2675207                       # Number of BP lookups
system.switch_cpus.branchPred.usedRAS               1                       # Number of times the RAS was used to get a target.
system.switch_cpus.branchPredindirectMispredicted          237                       # Number of mispredicted indirect branches.
system.switch_cpus.cc_regfile_reads          13395824                       # number of cc regfile reads
system.switch_cpus.cc_regfile_writes          8263783                       # number of cc regfile writes
system.switch_cpus.commit.amos                      0                       # Number of atomic instructions committed
system.switch_cpus.commit.branchMispredicts         9793                       # The number of times a branch was mispredicted
system.switch_cpus.commit.branches            2499612                       # Number of branches committed
system.switch_cpus.commit.bw_lim_events         87189                       # number cycles where commit BW limit reached
system.switch_cpus.commit.commitSquashedInsts       886075                       # The number of squashed insts skipped by commit
system.switch_cpus.commit.committedInsts     10000000                       # Number of instructions committed
system.switch_cpus.commit.committedOps       18252454                       # Number of ops (including micro ops) committed
system.switch_cpus.commit.committed_per_cycle::samples    203899405                       # Number of insts commited each cycle
system.switch_cpus.commit.committed_per_cycle::mean     0.089517                       # Number of insts commited each cycle
system.switch_cpus.commit.committed_per_cycle::stdev     0.504231                       # Number of insts commited each cycle
system.switch_cpus.commit.committed_per_cycle::underflows            0      0.00%      0.00% # Number of insts commited each cycle
system.switch_cpus.commit.committed_per_cycle::0    194780430     95.53%     95.53% # Number of insts commited each cycle
system.switch_cpus.commit.committed_per_cycle::1      4629339      2.27%     97.80% # Number of insts commited each cycle
system.switch_cpus.commit.committed_per_cycle::2      1978004      0.97%     98.77% # Number of insts commited each cycle
system.switch_cpus.commit.committed_per_cycle::3      1298837      0.64%     99.41% # Number of insts commited each cycle
system.switch_cpus.commit.committed_per_cycle::4       810265      0.40%     99.80% # Number of insts commited each cycle
system.switch_cpus.commit.committed_per_cycle::5        63937      0.03%     99.83% # Number of insts commited each cycle
system.switch_cpus.commit.committed_per_cycle::6       247489      0.12%     99.96% # Number of insts commited each cycle
system.switch_cpus.commit.committed_per_cycle::7         3915      0.00%     99.96% # Number of insts commited each cycle
system.switch_cpus.commit.committed_per_cycle::8        87189      0.04%    100.00% # Number of insts commited each cycle
system.switch_cpus.commit.committed_per_cycle::overflows            0      0.00%    100.00% # Number of insts commited each cycle
system.switch_cpus.commit.committed_per_cycle::min_value            0                       # Number of insts commited each cycle
system.switch_cpus.commit.committed_per_cycle::max_value            8                       # Number of insts commited each cycle
system.switch_cpus.commit.committed_per_cycle::total    203899405                       # Number of insts commited each cycle
system.switch_cpus.commit.fp_insts                  0                       # Number of committed floating point instructions.
system.switch_cpus.commit.function_calls            0                       # Number of function calls committed.
system.switch_cpus.commit.int_insts          18252232                       # Number of committed integer instructions.
system.switch_cpus.commit.loads               5000554                       # Number of loads committed
system.switch_cpus.commit.membars                   0                       # Number of memory barriers committed
system.switch_cpus.commit.op_class_0::No_OpClass            0      0.00%      0.00% # Class of committed instruction
system.switch_cpus.commit.op_class_0::IntAlu     13251456     72.60%     72.60% # Class of committed instruction
system.switch_cpus.commit.op_class_0::IntMult            0      0.00%     72.60% # Class of committed instruction
system.switch_cpus.commit.op_class_0::IntDiv            0      0.00%     72.60% # Class of committed instruction
system.switch_cpus.commit.op_class_0::FloatAdd            0      0.00%     72.60% # Class of committed instruction
system.switch_cpus.commit.op_class_0::FloatCmp            0      0.00%     72.60% # Class of committed instruction
system.switch_cpus.commit.op_class_0::FloatCvt            0      0.00%     72.60% # Class of committed instruction
system.switch_cpus.commit.op_class_0::FloatMult            0      0.00%     72.60% # Class of committed instruction
system.switch_cpus.commit.op_class_0::FloatMultAcc            0      0.00%     72.60% # Class of committed instruction
system.switch_cpus.commit.op_class_0::FloatDiv            0      0.00%     72.60% # Class of committed instruction
system.switch_cpus.commit.op_class_0::FloatMisc            0      0.00%     72.60% # Class of committed instruction
system.switch_cpus.commit.op_class_0::FloatSqrt            0      0.00%     72.60% # Class of committed instruction
system.switch_cpus.commit.op_class_0::SimdAdd            0      0.00%     72.60% # Class of committed instruction
system.switch_cpus.commit.op_class_0::SimdAddAcc            0      0.00%     72.60% # Class of committed instruction
system.switch_cpus.commit.op_class_0::SimdAlu            0      0.00%     72.60% # Class of committed instruction
system.switch_cpus.commit.op_class_0::SimdCmp            0      0.00%     72.60% # Class of committed instruction
system.switch_cpus.commit.op_class_0::SimdCvt            0      0.00%     72.60% # Class of committed instruction
system.switch_cpus.commit.op_class_0::SimdMisc            0      0.00%     72.60% # Class of committed instruction
system.switch_cpus.commit.op_class_0::SimdMult            0      0.00%     72.60% # Class of committed instruction
system.switch_cpus.commit.op_class_0::SimdMultAcc            0      0.00%     72.60% # Class of committed instruction
system.switch_cpus.commit.op_class_0::SimdShift            0      0.00%     72.60% # Class of committed instruction
system.switch_cpus.commit.op_class_0::SimdShiftAcc            0      0.00%     72.60% # Class of committed instruction
system.switch_cpus.commit.op_class_0::SimdDiv            0      0.00%     72.60% # Class of committed instruction
system.switch_cpus.commit.op_class_0::SimdSqrt            0      0.00%     72.60% # Class of committed instruction
system.switch_cpus.commit.op_class_0::SimdFloatAdd            0      0.00%     72.60% # Class of committed instruction
system.switch_cpus.commit.op_class_0::SimdFloatAlu            0      0.00%     72.60% # Class of committed instruction
system.switch_cpus.commit.op_class_0::SimdFloatCmp            0      0.00%     72.60% # Class of committed instruction
system.switch_cpus.commit.op_class_0::SimdFloatCvt            0      0.00%     72.60% # Class of committed instruction
system.switch_cpus.commit.op_class_0::SimdFloatDiv            0      0.00%     72.60% # Class of committed instruction
system.switch_cpus.commit.op_class_0::SimdFloatMisc            0      0.00%     72.60% # Class of committed instruction
system.switch_cpus.commit.op_class_0::SimdFloatMult            0      0.00%     72.60% # Class of committed instruction
system.switch_cpus.commit.op_class_0::SimdFloatMultAcc            0      0.00%     72.60% # Class of committed instruction
system.switch_cpus.commit.op_class_0::SimdFloatSqrt            0      0.00%     72.60% # Class of committed instruction
system.switch_cpus.commit.op_class_0::SimdReduceAdd            0      0.00%     72.60% # Class of committed instruction
system.switch_cpus.commit.op_class_0::SimdReduceAlu            0      0.00%     72.60% # Class of committed instruction
system.switch_cpus.commit.op_class_0::SimdReduceCmp            0      0.00%     72.60% # Class of committed instruction
system.switch_cpus.commit.op_class_0::SimdFloatReduceAdd            0      0.00%     72.60% # Class of committed instruction
system.switch_cpus.commit.op_class_0::SimdFloatReduceCmp            0      0.00%     72.60% # Class of committed instruction
system.switch_cpus.commit.op_class_0::SimdAes            0      0.00%     72.60% # Class of committed instruction
system.switch_cpus.commit.op_class_0::SimdAesMix            0      0.00%     72.60% # Class of committed instruction
system.switch_cpus.commit.op_class_0::SimdSha1Hash            0      0.00%     72.60% # Class of committed instruction
system.switch_cpus.commit.op_class_0::SimdSha1Hash2            0      0.00%     72.60% # Class of committed instruction
system.switch_cpus.commit.op_class_0::SimdSha256Hash            0      0.00%     72.60% # Class of committed instruction
system.switch_cpus.commit.op_class_0::SimdSha256Hash2            0      0.00%     72.60% # Class of committed instruction
system.switch_cpus.commit.op_class_0::SimdShaSigma2            0      0.00%     72.60% # Class of committed instruction
system.switch_cpus.commit.op_class_0::SimdShaSigma3            0      0.00%     72.60% # Class of committed instruction
system.switch_cpus.commit.op_class_0::SimdPredAlu            0      0.00%     72.60% # Class of committed instruction
system.switch_cpus.commit.op_class_0::MemRead      5000554     27.40%    100.00% # Class of committed instruction
system.switch_cpus.commit.op_class_0::MemWrite          444      0.00%    100.00% # Class of committed instruction
system.switch_cpus.commit.op_class_0::FloatMemRead            0      0.00%    100.00% # Class of committed instruction
system.switch_cpus.commit.op_class_0::FloatMemWrite            0      0.00%    100.00% # Class of committed instruction
system.switch_cpus.commit.op_class_0::IprAccess            0      0.00%    100.00% # Class of committed instruction
system.switch_cpus.commit.op_class_0::InstPrefetch            0      0.00%    100.00% # Class of committed instruction
system.switch_cpus.commit.op_class_0::total     18252454                       # Class of committed instruction
system.switch_cpus.commit.refs                5000998                       # Number of memory references committed
system.switch_cpus.commit.swp_count                 0                       # Number of s/w prefetches committed
system.switch_cpus.commit.vec_insts                 0                       # Number of committed Vector instructions.
system.switch_cpus.committedInsts            10000000                       # Number of Instructions Simulated
system.switch_cpus.committedOps              18252454                       # Number of Ops (including micro ops) Simulated
system.switch_cpus.cpi                      20.401639                       # CPI: Cycles Per Instruction
system.switch_cpus.cpi_total                20.401639                       # CPI: Total CPI of All Threads
system.switch_cpus.decode.BlockedCycles     200813628                       # Number of cycles decode is blocked
system.switch_cpus.decode.DecodedInsts       19212269                       # Number of instructions handled by decode
system.switch_cpus.decode.IdleCycles           782467                       # Number of cycles decode is idle
system.switch_cpus.decode.RunCycles            116978                       # Number of cycles decode is running
system.switch_cpus.decode.SquashCycles           9799                       # Number of cycles decode is squashing
system.switch_cpus.decode.UnblockCycles       2292411                       # Number of cycles decode is unblocking
system.switch_cpus.dtb.rdAccesses             5053250                       # TLB accesses on read requests
system.switch_cpus.dtb.rdMisses                 64064                       # TLB misses on read requests
system.switch_cpus.dtb.wrAccesses                3015                       # TLB accesses on write requests
system.switch_cpus.dtb.wrMisses                   223                       # TLB misses on write requests
system.switch_cpus.fetch.Branches             2675207                       # Number of branches that fetch encountered
system.switch_cpus.fetch.CacheLines           1601014                       # Number of cache lines fetched
system.switch_cpus.fetch.Cycles             202400432                       # Number of cycles fetch has run and was not squashing or blocked
system.switch_cpus.fetch.IcacheSquashes           414                       # Number of outstanding Icache misses that were squashed
system.switch_cpus.fetch.Insts               10734040                       # Number of instructions fetch has processed
system.switch_cpus.fetch.MiscStallCycles           11                       # Number of cycles fetch has spent waiting on interrupts, or bad addresses, or out of MSHRs
system.switch_cpus.fetch.PendingTrapStallCycles           68                       # Number of stall cycles due to pending traps
system.switch_cpus.fetch.SquashCycles           19598                       # Number of cycles fetch has spent squashing
system.switch_cpus.fetch.branchRate          0.013113                       # Number of branch fetches per cycle
system.switch_cpus.fetch.icacheStallCycles      1604981                       # Number of cycles fetch is stalled on an Icache miss
system.switch_cpus.fetch.predictedBranches       935998                       # Number of branches that fetch has predicted taken
system.switch_cpus.fetch.rate                0.052614                       # Number of inst fetches per cycle
system.switch_cpus.fetch.rateDist::samples    204015291                       # Number of instructions fetched each cycle (Total)
system.switch_cpus.fetch.rateDist::mean      0.095887                       # Number of instructions fetched each cycle (Total)
system.switch_cpus.fetch.rateDist::stdev     0.778317                       # Number of instructions fetched each cycle (Total)
system.switch_cpus.fetch.rateDist::underflows            0      0.00%      0.00% # Number of instructions fetched each cycle (Total)
system.switch_cpus.fetch.rateDist::0        200398027     98.23%     98.23% # Number of instructions fetched each cycle (Total)
system.switch_cpus.fetch.rateDist::1            41517      0.02%     98.25% # Number of instructions fetched each cycle (Total)
system.switch_cpus.fetch.rateDist::2           729840      0.36%     98.61% # Number of instructions fetched each cycle (Total)
system.switch_cpus.fetch.rateDist::3            41186      0.02%     98.63% # Number of instructions fetched each cycle (Total)
system.switch_cpus.fetch.rateDist::4           693201      0.34%     98.97% # Number of instructions fetched each cycle (Total)
system.switch_cpus.fetch.rateDist::5            41171      0.02%     98.99% # Number of instructions fetched each cycle (Total)
system.switch_cpus.fetch.rateDist::6           783086      0.38%     99.37% # Number of instructions fetched each cycle (Total)
system.switch_cpus.fetch.rateDist::7            37613      0.02%     99.39% # Number of instructions fetched each cycle (Total)
system.switch_cpus.fetch.rateDist::8          1249650      0.61%    100.00% # Number of instructions fetched each cycle (Total)
system.switch_cpus.fetch.rateDist::overflows            0      0.00%    100.00% # Number of instructions fetched each cycle (Total)
system.switch_cpus.fetch.rateDist::min_value            0                       # Number of instructions fetched each cycle (Total)
system.switch_cpus.fetch.rateDist::max_value            8                       # Number of instructions fetched each cycle (Total)
system.switch_cpus.fetch.rateDist::total    204015291                       # Number of instructions fetched each cycle (Total)
system.switch_cpus.fp_regfile_writes               56                       # number of floating regfile writes
system.switch_cpus.idleCycles                    1103                       # Total number of cycles that the CPU has spent unscheduled due to idling
system.switch_cpus.iew.branchMispredicts         9815                       # Number of branch mispredicts detected at execute
system.switch_cpus.iew.exec_branches          2503333                       # Number of branches executed
system.switch_cpus.iew.exec_nop                     0                       # number of nop insts executed
system.switch_cpus.iew.exec_rate             0.091443                       # Inst execution rate
system.switch_cpus.iew.exec_refs              5125666                       # number of memory reference insts executed
system.switch_cpus.iew.exec_stores               3015                       # Number of stores executed
system.switch_cpus.iew.exec_swp                     0                       # number of swp insts executed
system.switch_cpus.iew.iewBlockCycles       162424336                       # Number of cycles IEW is blocking
system.switch_cpus.iew.iewDispLoadInsts       5241144                       # Number of dispatched load instructions
system.switch_cpus.iew.iewDispNonSpecInsts            0                       # Number of dispatched non-speculative instructions
system.switch_cpus.iew.iewDispSquashedInsts           40                       # Number of squashed instructions skipped by dispatch
system.switch_cpus.iew.iewDispStoreInsts         5823                       # Number of dispatched store instructions
system.switch_cpus.iew.iewDispatchedInsts     19138614                       # Number of instructions dispatched to IQ
system.switch_cpus.iew.iewExecLoadInsts       5122651                       # Number of load instructions executed
system.switch_cpus.iew.iewExecSquashedInsts         9380                       # Number of squashed instructions skipped in execute
system.switch_cpus.iew.iewExecutedInsts      18655796                       # Number of executed instructions
system.switch_cpus.iew.iewIQFullEvents         435888                       # Number of times the IQ has become full, causing a stall
system.switch_cpus.iew.iewIdleCycles                0                       # Number of cycles IEW is idle
system.switch_cpus.iew.iewLSQFullEvents         58056                       # Number of times the LSQ has become full, causing a stall
system.switch_cpus.iew.iewSquashCycles           9799                       # Number of cycles IEW is squashing
system.switch_cpus.iew.iewUnblockCycles       1871631                       # Number of cycles IEW is unblocking
system.switch_cpus.iew.lsq.thread0.blockedLoads            0                       # Number of blocked loads due to partial load-store forwarding
system.switch_cpus.iew.lsq.thread0.cacheBlocked        63532                       # Number of times an access to memory failed due to the cache being blocked
system.switch_cpus.iew.lsq.thread0.forwLoads          606                       # Number of loads that had data forwarded from stores
system.switch_cpus.iew.lsq.thread0.ignoredResponses            0                       # Number of memory responses ignored because the instruction is squashed
system.switch_cpus.iew.lsq.thread0.invAddrLoads            0                       # Number of loads ignored due to an invalid address
system.switch_cpus.iew.lsq.thread0.invAddrSwpfs            0                       # Number of software prefetches ignored due to an invalid address
system.switch_cpus.iew.lsq.thread0.memOrderViolation           44                       # Number of memory ordering violations
system.switch_cpus.iew.lsq.thread0.rescheduledLoads            0                       # Number of loads that were rescheduled
system.switch_cpus.iew.lsq.thread0.squashedLoads       240564                       # Number of loads squashed
system.switch_cpus.iew.lsq.thread0.squashedStores         5379                       # Number of stores squashed
system.switch_cpus.iew.memOrderViolationEvents           44                       # Number of memory order violations
system.switch_cpus.iew.predictedNotTakenIncorrect         6885                       # Number of branches that were predicted not taken incorrectly
system.switch_cpus.iew.predictedTakenIncorrect         2930                       # Number of branches that were predicted taken incorrectly
system.switch_cpus.iew.wb_consumers          19934605                       # num instructions consuming a value
system.switch_cpus.iew.wb_count              18568240                       # cumulative count of insts written-back
system.switch_cpus.iew.wb_fanout             0.617303                       # average fanout of values written-back
system.switch_cpus.iew.wb_producers          12305686                       # num instructions producing a value
system.switch_cpus.iew.wb_rate               0.091013                       # insts written-back per cycle
system.switch_cpus.iew.wb_sent               18568705                       # cumulative count of insts sent to commit
system.switch_cpus.int_regfile_reads         24405763                       # number of integer regfile reads
system.switch_cpus.int_regfile_writes        16061635                       # number of integer regfile writes
system.switch_cpus.ipc                       0.049016                       # IPC: Instructions Per Cycle
system.switch_cpus.ipc_total                 0.049016                       # IPC: Total IPC of All Threads
system.switch_cpus.iq.FU_type_0::No_OpClass          140      0.00%      0.00% # Type of FU issued
system.switch_cpus.iq.FU_type_0::IntAlu      13538906     72.54%     72.54% # Type of FU issued
system.switch_cpus.iq.FU_type_0::IntMult            3      0.00%     72.54% # Type of FU issued
system.switch_cpus.iq.FU_type_0::IntDiv             0      0.00%     72.54% # Type of FU issued
system.switch_cpus.iq.FU_type_0::FloatAdd            0      0.00%     72.54% # Type of FU issued
system.switch_cpus.iq.FU_type_0::FloatCmp            0      0.00%     72.54% # Type of FU issued
system.switch_cpus.iq.FU_type_0::FloatCvt            0      0.00%     72.54% # Type of FU issued
system.switch_cpus.iq.FU_type_0::FloatMult            0      0.00%     72.54% # Type of FU issued
system.switch_cpus.iq.FU_type_0::FloatMultAcc            0      0.00%     72.54% # Type of FU issued
system.switch_cpus.iq.FU_type_0::FloatDiv            0      0.00%     72.54% # Type of FU issued
system.switch_cpus.iq.FU_type_0::FloatMisc            0      0.00%     72.54% # Type of FU issued
system.switch_cpus.iq.FU_type_0::FloatSqrt            0      0.00%     72.54% # Type of FU issued
system.switch_cpus.iq.FU_type_0::SimdAdd            0      0.00%     72.54% # Type of FU issued
system.switch_cpus.iq.FU_type_0::SimdAddAcc            0      0.00%     72.54% # Type of FU issued
system.switch_cpus.iq.FU_type_0::SimdAlu            0      0.00%     72.54% # Type of FU issued
system.switch_cpus.iq.FU_type_0::SimdCmp            0      0.00%     72.54% # Type of FU issued
system.switch_cpus.iq.FU_type_0::SimdCvt            0      0.00%     72.54% # Type of FU issued
system.switch_cpus.iq.FU_type_0::SimdMisc            0      0.00%     72.54% # Type of FU issued
system.switch_cpus.iq.FU_type_0::SimdMult            0      0.00%     72.54% # Type of FU issued
system.switch_cpus.iq.FU_type_0::SimdMultAcc            0      0.00%     72.54% # Type of FU issued
system.switch_cpus.iq.FU_type_0::SimdShift            0      0.00%     72.54% # Type of FU issued
system.switch_cpus.iq.FU_type_0::SimdShiftAcc            0      0.00%     72.54% # Type of FU issued
system.switch_cpus.iq.FU_type_0::SimdDiv            0      0.00%     72.54% # Type of FU issued
system.switch_cpus.iq.FU_type_0::SimdSqrt            0      0.00%     72.54% # Type of FU issued
system.switch_cpus.iq.FU_type_0::SimdFloatAdd            0      0.00%     72.54% # Type of FU issued
system.switch_cpus.iq.FU_type_0::SimdFloatAlu            0      0.00%     72.54% # Type of FU issued
system.switch_cpus.iq.FU_type_0::SimdFloatCmp            0      0.00%     72.54% # Type of FU issued
system.switch_cpus.iq.FU_type_0::SimdFloatCvt            0      0.00%     72.54% # Type of FU issued
system.switch_cpus.iq.FU_type_0::SimdFloatDiv            0      0.00%     72.54% # Type of FU issued
system.switch_cpus.iq.FU_type_0::SimdFloatMisc            0      0.00%     72.54% # Type of FU issued
system.switch_cpus.iq.FU_type_0::SimdFloatMult            0      0.00%     72.54% # Type of FU issued
system.switch_cpus.iq.FU_type_0::SimdFloatMultAcc            0      0.00%     72.54% # Type of FU issued
system.switch_cpus.iq.FU_type_0::SimdFloatSqrt            0      0.00%     72.54% # Type of FU issued
system.switch_cpus.iq.FU_type_0::SimdReduceAdd            0      0.00%     72.54% # Type of FU issued
system.switch_cpus.iq.FU_type_0::SimdReduceAlu            0      0.00%     72.54% # Type of FU issued
system.switch_cpus.iq.FU_type_0::SimdReduceCmp            0      0.00%     72.54% # Type of FU issued
system.switch_cpus.iq.FU_type_0::SimdFloatReduceAdd            0      0.00%     72.54% # Type of FU issued
system.switch_cpus.iq.FU_type_0::SimdFloatReduceCmp            0      0.00%     72.54% # Type of FU issued
system.switch_cpus.iq.FU_type_0::SimdAes            0      0.00%     72.54% # Type of FU issued
system.switch_cpus.iq.FU_type_0::SimdAesMix            0      0.00%     72.54% # Type of FU issued
system.switch_cpus.iq.FU_type_0::SimdSha1Hash            0      0.00%     72.54% # Type of FU issued
system.switch_cpus.iq.FU_type_0::SimdSha1Hash2            0      0.00%     72.54% # Type of FU issued
system.switch_cpus.iq.FU_type_0::SimdSha256Hash            0      0.00%     72.54% # Type of FU issued
system.switch_cpus.iq.FU_type_0::SimdSha256Hash2            0      0.00%     72.54% # Type of FU issued
system.switch_cpus.iq.FU_type_0::SimdShaSigma2            0      0.00%     72.54% # Type of FU issued
system.switch_cpus.iq.FU_type_0::SimdShaSigma3            0      0.00%     72.54% # Type of FU issued
system.switch_cpus.iq.FU_type_0::SimdPredAlu            0      0.00%     72.54% # Type of FU issued
system.switch_cpus.iq.FU_type_0::MemRead      5123101     27.45%     99.98% # Type of FU issued
system.switch_cpus.iq.FU_type_0::MemWrite         3026      0.02%    100.00% # Type of FU issued
system.switch_cpus.iq.FU_type_0::FloatMemRead            0      0.00%    100.00% # Type of FU issued
system.switch_cpus.iq.FU_type_0::FloatMemWrite            0      0.00%    100.00% # Type of FU issued
system.switch_cpus.iq.FU_type_0::IprAccess            0      0.00%    100.00% # Type of FU issued
system.switch_cpus.iq.FU_type_0::InstPrefetch            0      0.00%    100.00% # Type of FU issued
system.switch_cpus.iq.FU_type_0::total       18665176                       # Type of FU issued
system.switch_cpus.iq.fp_alu_accesses               0                       # Number of floating point alu accesses
system.switch_cpus.iq.fp_inst_queue_reads            0                       # Number of floating instruction queue reads
system.switch_cpus.iq.fp_inst_queue_wakeup_accesses            0                       # Number of floating instruction queue wakeup accesses
system.switch_cpus.iq.fp_inst_queue_writes            0                       # Number of floating instruction queue writes
system.switch_cpus.iq.fu_busy_cnt                 274                       # FU busy when requested
system.switch_cpus.iq.fu_busy_rate           0.000015                       # FU busy rate (busy events/executed inst)
system.switch_cpus.iq.fu_full::No_OpClass            0      0.00%      0.00% # attempts to use FU when none available
system.switch_cpus.iq.fu_full::IntAlu               9      3.28%      3.28% # attempts to use FU when none available
system.switch_cpus.iq.fu_full::IntMult              0      0.00%      3.28% # attempts to use FU when none available
system.switch_cpus.iq.fu_full::IntDiv               0      0.00%      3.28% # attempts to use FU when none available
system.switch_cpus.iq.fu_full::FloatAdd             0      0.00%      3.28% # attempts to use FU when none available
system.switch_cpus.iq.fu_full::FloatCmp             0      0.00%      3.28% # attempts to use FU when none available
system.switch_cpus.iq.fu_full::FloatCvt             0      0.00%      3.28% # attempts to use FU when none available
system.switch_cpus.iq.fu_full::FloatMult            0      0.00%      3.28% # attempts to use FU when none available
system.switch_cpus.iq.fu_full::FloatMultAcc            0      0.00%      3.28% # attempts to use FU when none available
system.switch_cpus.iq.fu_full::FloatDiv             0      0.00%      3.28% # attempts to use FU when none available
system.switch_cpus.iq.fu_full::FloatMisc            0      0.00%      3.28% # attempts to use FU when none available
system.switch_cpus.iq.fu_full::FloatSqrt            0      0.00%      3.28% # attempts to use FU when none available
system.switch_cpus.iq.fu_full::SimdAdd              0      0.00%      3.28% # attempts to use FU when none available
system.switch_cpus.iq.fu_full::SimdAddAcc            0      0.00%      3.28% # attempts to use FU when none available
system.switch_cpus.iq.fu_full::SimdAlu              0      0.00%      3.28% # attempts to use FU when none available
system.switch_cpus.iq.fu_full::SimdCmp              0      0.00%      3.28% # attempts to use FU when none available
system.switch_cpus.iq.fu_full::SimdCvt              0      0.00%      3.28% # attempts to use FU when none available
system.switch_cpus.iq.fu_full::SimdMisc             0      0.00%      3.28% # attempts to use FU when none available
system.switch_cpus.iq.fu_full::SimdMult             0      0.00%      3.28% # attempts to use FU when none available
system.switch_cpus.iq.fu_full::SimdMultAcc            0      0.00%      3.28% # attempts to use FU when none available
system.switch_cpus.iq.fu_full::SimdShift            0      0.00%      3.28% # attempts to use FU when none available
system.switch_cpus.iq.fu_full::SimdShiftAcc            0      0.00%      3.28% # attempts to use FU when none available
system.switch_cpus.iq.fu_full::SimdDiv              0      0.00%      3.28% # attempts to use FU when none available
system.switch_cpus.iq.fu_full::SimdSqrt             0      0.00%      3.28% # attempts to use FU when none available
system.switch_cpus.iq.fu_full::SimdFloatAdd            0      0.00%      3.28% # attempts to use FU when none available
system.switch_cpus.iq.fu_full::SimdFloatAlu            0      0.00%      3.28% # attempts to use FU when none available
system.switch_cpus.iq.fu_full::SimdFloatCmp            0      0.00%      3.28% # attempts to use FU when none available
system.switch_cpus.iq.fu_full::SimdFloatCvt            0      0.00%      3.28% # attempts to use FU when none available
system.switch_cpus.iq.fu_full::SimdFloatDiv            0      0.00%      3.28% # attempts to use FU when none available
system.switch_cpus.iq.fu_full::SimdFloatMisc            0      0.00%      3.28% # attempts to use FU when none available
system.switch_cpus.iq.fu_full::SimdFloatMult            0      0.00%      3.28% # attempts to use FU when none available
system.switch_cpus.iq.fu_full::SimdFloatMultAcc            0      0.00%      3.28% # attempts to use FU when none available
system.switch_cpus.iq.fu_full::SimdFloatSqrt            0      0.00%      3.28% # attempts to use FU when none available
system.switch_cpus.iq.fu_full::SimdReduceAdd            0      0.00%      3.28% # attempts to use FU when none available
system.switch_cpus.iq.fu_full::SimdReduceAlu            0      0.00%      3.28% # attempts to use FU when none available
system.switch_cpus.iq.fu_full::SimdReduceCmp            0      0.00%      3.28% # attempts to use FU when none available
system.switch_cpus.iq.fu_full::SimdFloatReduceAdd            0      0.00%      3.28% # attempts to use FU when none available
system.switch_cpus.iq.fu_full::SimdFloatReduceCmp            0      0.00%      3.28% # attempts to use FU when none available
system.switch_cpus.iq.fu_full::SimdAes              0      0.00%      3.28% # attempts to use FU when none available
system.switch_cpus.iq.fu_full::SimdAesMix            0      0.00%      3.28% # attempts to use FU when none available
system.switch_cpus.iq.fu_full::SimdSha1Hash            0      0.00%      3.28% # attempts to use FU when none available
system.switch_cpus.iq.fu_full::SimdSha1Hash2            0      0.00%      3.28% # attempts to use FU when none available
system.switch_cpus.iq.fu_full::SimdSha256Hash            0      0.00%      3.28% # attempts to use FU when none available
system.switch_cpus.iq.fu_full::SimdSha256Hash2            0      0.00%      3.28% # attempts to use FU when none available
system.switch_cpus.iq.fu_full::SimdShaSigma2            0      0.00%      3.28% # attempts to use FU when none available
system.switch_cpus.iq.fu_full::SimdShaSigma3            0      0.00%      3.28% # attempts to use FU when none available
system.switch_cpus.iq.fu_full::SimdPredAlu            0      0.00%      3.28% # attempts to use FU when none available
system.switch_cpus.iq.fu_full::MemRead            153     55.84%     59.12% # attempts to use FU when none available
system.switch_cpus.iq.fu_full::MemWrite           112     40.88%    100.00% # attempts to use FU when none available
system.switch_cpus.iq.fu_full::FloatMemRead            0      0.00%    100.00% # attempts to use FU when none available
system.switch_cpus.iq.fu_full::FloatMemWrite            0      0.00%    100.00% # attempts to use FU when none available
system.switch_cpus.iq.fu_full::IprAccess            0      0.00%    100.00% # attempts to use FU when none available
system.switch_cpus.iq.fu_full::InstPrefetch            0      0.00%    100.00% # attempts to use FU when none available
system.switch_cpus.iq.int_alu_accesses       18665310                       # Number of integer alu accesses
system.switch_cpus.iq.int_inst_queue_reads    241346056                       # Number of integer instruction queue reads
system.switch_cpus.iq.int_inst_queue_wakeup_accesses     18568240                       # Number of integer instruction queue wakeup accesses
system.switch_cpus.iq.int_inst_queue_writes     20024684                       # Number of integer instruction queue writes
system.switch_cpus.iq.iqInstsAdded           19138614                       # Number of instructions added to the IQ (excludes non-spec)
system.switch_cpus.iq.iqInstsIssued          18665176                       # Number of instructions issued
system.switch_cpus.iq.iqSquashedInstsExamined       886064                       # Number of squashed instructions iterated over during squash; mainly for profiling
system.switch_cpus.iq.iqSquashedInstsIssued          139                       # Number of squashed instructions issued
system.switch_cpus.iq.iqSquashedOperandsExamined      2020386                       # Number of squashed operands that are examined and possibly removed from graph
system.switch_cpus.iq.issued_per_cycle::samples    204015291                       # Number of insts issued each cycle
system.switch_cpus.iq.issued_per_cycle::mean     0.091489                       # Number of insts issued each cycle
system.switch_cpus.iq.issued_per_cycle::stdev     0.388874                       # Number of insts issued each cycle
system.switch_cpus.iq.issued_per_cycle::underflows            0      0.00%      0.00% # Number of insts issued each cycle
system.switch_cpus.iq.issued_per_cycle::0    190713463     93.48%     93.48% # Number of insts issued each cycle
system.switch_cpus.iq.issued_per_cycle::1      9376772      4.60%     98.08% # Number of insts issued each cycle
system.switch_cpus.iq.issued_per_cycle::2      2617058      1.28%     99.36% # Number of insts issued each cycle
system.switch_cpus.iq.issued_per_cycle::3      1190572      0.58%     99.94% # Number of insts issued each cycle
system.switch_cpus.iq.issued_per_cycle::4       106223      0.05%     99.99% # Number of insts issued each cycle
system.switch_cpus.iq.issued_per_cycle::5        10051      0.00%    100.00% # Number of insts issued each cycle
system.switch_cpus.iq.issued_per_cycle::6          800      0.00%    100.00% # Number of insts issued each cycle
system.switch_cpus.iq.issued_per_cycle::7          191      0.00%    100.00% # Number of insts issued each cycle
system.switch_cpus.iq.issued_per_cycle::8          161      0.00%    100.00% # Number of insts issued each cycle
system.switch_cpus.iq.issued_per_cycle::overflows            0      0.00%    100.00% # Number of insts issued each cycle
system.switch_cpus.iq.issued_per_cycle::min_value            0                       # Number of insts issued each cycle
system.switch_cpus.iq.issued_per_cycle::max_value            8                       # Number of insts issued each cycle
system.switch_cpus.iq.issued_per_cycle::total    204015291                       # Number of insts issued each cycle
system.switch_cpus.iq.rate                   0.091489                       # Inst issue rate
system.switch_cpus.iq.vec_alu_accesses              0                       # Number of vector alu accesses
system.switch_cpus.iq.vec_inst_queue_reads            0                       # Number of vector instruction queue reads
system.switch_cpus.iq.vec_inst_queue_wakeup_accesses            0                       # Number of vector instruction queue wakeup accesses
system.switch_cpus.iq.vec_inst_queue_writes            0                       # Number of vector instruction queue writes
system.switch_cpus.itb.rdAccesses                   0                       # TLB accesses on read requests
system.switch_cpus.itb.rdMisses                     0                       # TLB misses on read requests
system.switch_cpus.itb.wrAccesses             1601026                       # TLB accesses on write requests
system.switch_cpus.itb.wrMisses                    14                       # TLB misses on write requests
system.switch_cpus.memDep0.conflictingLoads          919                       # Number of conflicting loads.
system.switch_cpus.memDep0.conflictingStores          307                       # Number of conflicting stores.
system.switch_cpus.memDep0.insertedLoads      5241144                       # Number of loads inserted to the mem dependence unit.
system.switch_cpus.memDep0.insertedStores         5823                       # Number of stores inserted to the mem dependence unit.
system.switch_cpus.misc_regfile_reads        10244524                       # number of misc regfile reads
system.switch_cpus.misc_regfile_writes              1                       # number of misc regfile writes
system.switch_cpus.numCycles                204016394                       # number of cpu cycles simulated
system.switch_cpus.numWorkItemsCompleted            0                       # number of work items this cpu completed
system.switch_cpus.numWorkItemsStarted              0                       # number of work items this cpu started
system.switch_cpus.rename.BlockCycles       191215516                       # Number of cycles rename is blocking
system.switch_cpus.rename.CommittedMaps      24003739                       # Number of HB maps that are committed
system.switch_cpus.rename.IQFullEvents        9554474                       # Number of times rename has blocked due to IQ full
system.switch_cpus.rename.IdleCycles          1147894                       # Number of cycles rename is idle
system.switch_cpus.rename.LQFullEvents          69151                       # Number of times rename has blocked due to LQ full
system.switch_cpus.rename.ROBFullEvents          6774                       # Number of times rename has blocked due to ROB full
system.switch_cpus.rename.RenameLookups      49874179                       # Number of register rename lookups that rename has made
system.switch_cpus.rename.RenamedInsts       19164203                       # Number of instructions processed by rename
system.switch_cpus.rename.RenamedOperands     25203161                       # Number of destination operands rename has renamed
system.switch_cpus.rename.RunCycles           1405985                       # Number of cycles rename is running
system.switch_cpus.rename.SquashCycles           9799                       # Number of cycles rename is squashing
system.switch_cpus.rename.UnblockCycles      10236089                       # Number of cycles rename is unblocking
system.switch_cpus.rename.UndoneMaps          1199291                       # Number of HB maps that are undone due to squashing
system.switch_cpus.rename.int_rename_lookups     25345473                       # Number of integer rename lookups
system.switch_cpus.rename.serializeStallCycles            0                       # count of cycles rename stalled for serializing inst
system.switch_cpus.rename.serializingInsts            0                       # count of serializing insts renamed
system.switch_cpus.rename.skidInsts          15459144                       # count of insts added to the skid buffer
system.switch_cpus.rename.tempSerializingInsts            0                       # count of temporary serializing insts renamed
system.switch_cpus.rob.rob_reads            222950745                       # The number of ROB reads
system.switch_cpus.rob.rob_writes            38393067                       # The number of ROB writes
system.switch_cpus.timesIdled                      14                       # Number of times that the entire CPU went into an idle state and unscheduled itself
system.tol2bus.snoop_filter.hit_multi_requests            0                       # Number of requests hitting in the snoop filter with multiple (>1) holders of the requested data.
system.tol2bus.snoop_filter.hit_multi_snoops            0                       # Number of snoops hitting in the snoop filter with multiple (>1) holders of the requested data.
system.tol2bus.snoop_filter.hit_single_requests      3043855                       # Number of requests hitting in the snoop filter with a single holder of the requested data.
system.tol2bus.snoop_filter.hit_single_snoops      2682292                       # Number of snoops hitting in the snoop filter with a single holder of the requested data.
system.tol2bus.snoop_filter.tot_requests      6088754                       # Total number of requests made to the snoop filter.
system.tol2bus.snoop_filter.tot_snoops        2682292                       # Total number of snoops made to the snoop filter.
system.membus.pwrStateResidencyTicks::UNDEFINED 258564809752000                       # Cumulative time (in ticks) in various power states
system.membus.trans_dist::ReadResp            2708156                       # Transaction distribution
system.membus.trans_dist::WritebackDirty          439                       # Transaction distribution
system.membus.trans_dist::CleanEvict          2705460                       # Transaction distribution
system.membus.trans_dist::ReadExReq               221                       # Transaction distribution
system.membus.trans_dist::ReadExResp              221                       # Transaction distribution
system.membus.trans_dist::ReadSharedReq       2708157                       # Transaction distribution
system.membus.pkt_count_system.l2.mem_side::system.mem_ctrls.port      8122654                       # Packet count per connected master and slave (bytes)
system.membus.pkt_count_system.l2.mem_side::total      8122654                       # Packet count per connected master and slave (bytes)
system.membus.pkt_count::total                8122654                       # Packet count per connected master and slave (bytes)
system.membus.pkt_size_system.l2.mem_side::system.mem_ctrls.port    173364224                       # Cumulative packet size per connected master and slave (bytes)
system.membus.pkt_size_system.l2.mem_side::total    173364224                       # Cumulative packet size per connected master and slave (bytes)
system.membus.pkt_size::total               173364224                       # Cumulative packet size per connected master and slave (bytes)
system.membus.snoops                                0                       # Total snoops (count)
system.membus.snoopTraffic                          0                       # Total snoop traffic (bytes)
system.membus.snoop_fanout::samples           2708378                       # Request fanout histogram
system.membus.snoop_fanout::mean                    0                       # Request fanout histogram
system.membus.snoop_fanout::stdev                   0                       # Request fanout histogram
system.membus.snoop_fanout::underflows              0      0.00%      0.00% # Request fanout histogram
system.membus.snoop_fanout::0                 2708378    100.00%    100.00% # Request fanout histogram
system.membus.snoop_fanout::1                       0      0.00%    100.00% # Request fanout histogram
system.membus.snoop_fanout::overflows               0      0.00%    100.00% # Request fanout histogram
system.membus.snoop_fanout::min_value               0                       # Request fanout histogram
system.membus.snoop_fanout::max_value               0                       # Request fanout histogram
system.membus.snoop_fanout::total             2708378                       # Request fanout histogram
system.membus.reqLayer2.occupancy          6196251500                       # Layer occupancy (ticks)
system.membus.reqLayer2.utilization               6.1                       # Layer utilization (%)
system.membus.respLayer1.occupancy        14082041500                       # Layer occupancy (ticks)
system.membus.respLayer1.utilization             13.8                       # Layer utilization (%)
system.switch_cpus.pwrStateResidencyTicks::OFF 102008207000                       # Cumulative time (in ticks) in various power states
system.switch_cpus.dtb.walker.pwrStateResidencyTicks::UNDEFINED 258564809752000                       # Cumulative time (in ticks) in various power states
system.switch_cpus.itb.walker.pwrStateResidencyTicks::UNDEFINED 258564809752000                       # Cumulative time (in ticks) in various power states
system.tol2bus.pwrStateResidencyTicks::UNDEFINED 258564809752000                       # Cumulative time (in ticks) in various power states
system.tol2bus.trans_dist::ReadResp           3044675                       # Transaction distribution
system.tol2bus.trans_dist::WritebackDirty         1023                       # Transaction distribution
system.tol2bus.trans_dist::CleanEvict         5749602                       # Transaction distribution
system.tol2bus.trans_dist::ReadExReq              221                       # Transaction distribution
system.tol2bus.trans_dist::ReadExResp             221                       # Transaction distribution
system.tol2bus.trans_dist::ReadCleanReq            17                       # Transaction distribution
system.tol2bus.trans_dist::ReadSharedReq      3044661                       # Transaction distribution
system.tol2bus.pkt_count_system.cpu.icache.mem_side::system.l2.cpu_side           34                       # Packet count per connected master and slave (bytes)
system.tol2bus.pkt_count_system.cpu.dcache.mem_side::system.l2.cpu_side      9133616                       # Packet count per connected master and slave (bytes)
system.tol2bus.pkt_count::total               9133650                       # Packet count per connected master and slave (bytes)
system.tol2bus.pkt_size_system.cpu.icache.mem_side::system.l2.cpu_side         1088                       # Cumulative packet size per connected master and slave (bytes)
system.tol2bus.pkt_size_system.cpu.dcache.mem_side::system.l2.cpu_side    194909632                       # Cumulative packet size per connected master and slave (bytes)
system.tol2bus.pkt_size::total              194910720                       # Cumulative packet size per connected master and slave (bytes)
system.tol2bus.snoops                         2706770                       # Total snoops (count)
system.tol2bus.snoopTraffic                     28096                       # Total snoop traffic (bytes)
system.tol2bus.snoop_fanout::samples          5751669                       # Request fanout histogram
system.tol2bus.snoop_fanout::mean            0.466350                       # Request fanout histogram
system.tol2bus.snoop_fanout::stdev           0.498866                       # Request fanout histogram
system.tol2bus.snoop_fanout::underflows             0      0.00%      0.00% # Request fanout histogram
system.tol2bus.snoop_fanout::0                3069377     53.36%     53.36% # Request fanout histogram
system.tol2bus.snoop_fanout::1                2682292     46.64%    100.00% # Request fanout histogram
system.tol2bus.snoop_fanout::2                      0      0.00%    100.00% # Request fanout histogram
system.tol2bus.snoop_fanout::3                      0      0.00%    100.00% # Request fanout histogram
system.tol2bus.snoop_fanout::4                      0      0.00%    100.00% # Request fanout histogram
system.tol2bus.snoop_fanout::overflows              0      0.00%    100.00% # Request fanout histogram
system.tol2bus.snoop_fanout::min_value              0                       # Request fanout histogram
system.tol2bus.snoop_fanout::max_value              1                       # Request fanout histogram
system.tol2bus.snoop_fanout::total            5751669                       # Request fanout histogram
system.tol2bus.reqLayer0.occupancy         3044957500                       # Layer occupancy (ticks)
system.tol2bus.reqLayer0.utilization              3.0                       # Layer utilization (%)
system.tol2bus.respLayer1.occupancy        4567311000                       # Layer occupancy (ticks)
system.tol2bus.respLayer1.utilization             4.5                       # Layer utilization (%)
system.tol2bus.respLayer0.occupancy             22500                       # Layer occupancy (ticks)
system.tol2bus.respLayer0.utilization             0.0                       # Layer utilization (%)
system.voltage_domain.voltage                       1                       # Voltage in Volts
system.clk_domain.clock                          1000                       # Clock period in ticks
system.l2.pwrStateResidencyTicks::UNDEFINED 258564809752000                       # Cumulative time (in ticks) in various power states
system.l2.demand_hits::.switch_cpus.data       336519                       # number of demand (read+write) hits
system.l2.demand_hits::total                   336519                       # number of demand (read+write) hits
system.l2.overall_hits::.switch_cpus.data       336519                       # number of overall hits
system.l2.overall_hits::total                  336519                       # number of overall hits
system.l2.demand_misses::.cpu.inst                  2                       # number of demand (read+write) misses
system.l2.demand_misses::.cpu.data                  5                       # number of demand (read+write) misses
system.l2.demand_misses::.switch_cpus.inst           15                       # number of demand (read+write) misses
system.l2.demand_misses::.switch_cpus.data      2708358                       # number of demand (read+write) misses
system.l2.demand_misses::total                2708380                       # number of demand (read+write) misses
system.l2.overall_misses::.cpu.inst                 2                       # number of overall misses
system.l2.overall_misses::.cpu.data                 5                       # number of overall misses
system.l2.overall_misses::.switch_cpus.inst           15                       # number of overall misses
system.l2.overall_misses::.switch_cpus.data      2708358                       # number of overall misses
system.l2.overall_misses::total               2708380                       # number of overall misses
system.l2.demand_miss_latency::.switch_cpus.inst      1175500                       # number of demand (read+write) miss cycles
system.l2.demand_miss_latency::.switch_cpus.data 215692786500                       # number of demand (read+write) miss cycles
system.l2.demand_miss_latency::total     215693962000                       # number of demand (read+write) miss cycles
system.l2.overall_miss_latency::.switch_cpus.inst      1175500                       # number of overall miss cycles
system.l2.overall_miss_latency::.switch_cpus.data 215692786500                       # number of overall miss cycles
system.l2.overall_miss_latency::total    215693962000                       # number of overall miss cycles
system.l2.demand_accesses::.cpu.inst                2                       # number of demand (read+write) accesses
system.l2.demand_accesses::.cpu.data                5                       # number of demand (read+write) accesses
system.l2.demand_accesses::.switch_cpus.inst           15                       # number of demand (read+write) accesses
system.l2.demand_accesses::.switch_cpus.data      3044877                       # number of demand (read+write) accesses
system.l2.demand_accesses::total              3044899                       # number of demand (read+write) accesses
system.l2.overall_accesses::.cpu.inst               2                       # number of overall (read+write) accesses
system.l2.overall_accesses::.cpu.data               5                       # number of overall (read+write) accesses
system.l2.overall_accesses::.switch_cpus.inst           15                       # number of overall (read+write) accesses
system.l2.overall_accesses::.switch_cpus.data      3044877                       # number of overall (read+write) accesses
system.l2.overall_accesses::total             3044899                       # number of overall (read+write) accesses
system.l2.demand_miss_rate::.cpu.inst               1                       # miss rate for demand accesses
system.l2.demand_miss_rate::.cpu.data               1                       # miss rate for demand accesses
system.l2.demand_miss_rate::.switch_cpus.inst            1                       # miss rate for demand accesses
system.l2.demand_miss_rate::.switch_cpus.data     0.889480                       # miss rate for demand accesses
system.l2.demand_miss_rate::total            0.889481                       # miss rate for demand accesses
system.l2.overall_miss_rate::.cpu.inst              1                       # miss rate for overall accesses
system.l2.overall_miss_rate::.cpu.data              1                       # miss rate for overall accesses
system.l2.overall_miss_rate::.switch_cpus.inst            1                       # miss rate for overall accesses
system.l2.overall_miss_rate::.switch_cpus.data     0.889480                       # miss rate for overall accesses
system.l2.overall_miss_rate::total           0.889481                       # miss rate for overall accesses
system.l2.demand_avg_miss_latency::.switch_cpus.inst 78366.666667                       # average overall miss latency
system.l2.demand_avg_miss_latency::.switch_cpus.data 79639.688143                       # average overall miss latency
system.l2.demand_avg_miss_latency::total 79639.475258                       # average overall miss latency
system.l2.overall_avg_miss_latency::.switch_cpus.inst 78366.666667                       # average overall miss latency
system.l2.overall_avg_miss_latency::.switch_cpus.data 79639.688143                       # average overall miss latency
system.l2.overall_avg_miss_latency::total 79639.475258                       # average overall miss latency
system.l2.blocked_cycles::no_mshrs                  0                       # number of cycles access was blocked
system.l2.blocked_cycles::no_targets                0                       # number of cycles access was blocked
system.l2.blocked::no_mshrs                         0                       # number of cycles access was blocked
system.l2.blocked::no_targets                       0                       # number of cycles access was blocked
system.l2.avg_blocked_cycles::no_mshrs            nan                       # average number of cycles each access was blocked
system.l2.avg_blocked_cycles::no_targets          nan                       # average number of cycles each access was blocked
system.l2.writebacks::.writebacks                 439                       # number of writebacks
system.l2.writebacks::total                       439                       # number of writebacks
system.l2.demand_mshr_misses::.switch_cpus.inst           15                       # number of demand (read+write) MSHR misses
system.l2.demand_mshr_misses::.switch_cpus.data      2708358                       # number of demand (read+write) MSHR misses
system.l2.demand_mshr_misses::total           2708373                       # number of demand (read+write) MSHR misses
system.l2.overall_mshr_misses::.switch_cpus.inst           15                       # number of overall MSHR misses
system.l2.overall_mshr_misses::.switch_cpus.data      2708358                       # number of overall MSHR misses
system.l2.overall_mshr_misses::total          2708373                       # number of overall MSHR misses
system.l2.demand_mshr_miss_latency::.switch_cpus.inst      1025500                       # number of demand (read+write) MSHR miss cycles
system.l2.demand_mshr_miss_latency::.switch_cpus.data 188609236500                       # number of demand (read+write) MSHR miss cycles
system.l2.demand_mshr_miss_latency::total 188610262000                       # number of demand (read+write) MSHR miss cycles
system.l2.overall_mshr_miss_latency::.switch_cpus.inst      1025500                       # number of overall MSHR miss cycles
system.l2.overall_mshr_miss_latency::.switch_cpus.data 188609236500                       # number of overall MSHR miss cycles
system.l2.overall_mshr_miss_latency::total 188610262000                       # number of overall MSHR miss cycles
system.l2.demand_mshr_miss_rate::.switch_cpus.inst            1                       # mshr miss rate for demand accesses
system.l2.demand_mshr_miss_rate::.switch_cpus.data     0.889480                       # mshr miss rate for demand accesses
system.l2.demand_mshr_miss_rate::total       0.889479                       # mshr miss rate for demand accesses
system.l2.overall_mshr_miss_rate::.switch_cpus.inst            1                       # mshr miss rate for overall accesses
system.l2.overall_mshr_miss_rate::.switch_cpus.data     0.889480                       # mshr miss rate for overall accesses
system.l2.overall_mshr_miss_rate::total      0.889479                       # mshr miss rate for overall accesses
system.l2.demand_avg_mshr_miss_latency::.switch_cpus.inst 68366.666667                       # average overall mshr miss latency
system.l2.demand_avg_mshr_miss_latency::.switch_cpus.data 69639.699220                       # average overall mshr miss latency
system.l2.demand_avg_mshr_miss_latency::total 69639.692169                       # average overall mshr miss latency
system.l2.overall_avg_mshr_miss_latency::.switch_cpus.inst 68366.666667                       # average overall mshr miss latency
system.l2.overall_avg_mshr_miss_latency::.switch_cpus.data 69639.699220                       # average overall mshr miss latency
system.l2.overall_avg_mshr_miss_latency::total 69639.692169                       # average overall mshr miss latency
system.l2.replacements                        2706770                       # number of replacements
system.l2.WritebackDirty_hits::.writebacks          584                       # number of WritebackDirty hits
system.l2.WritebackDirty_hits::total              584                       # number of WritebackDirty hits
system.l2.WritebackDirty_accesses::.writebacks          584                       # number of WritebackDirty accesses(hits+misses)
system.l2.WritebackDirty_accesses::total          584                       # number of WritebackDirty accesses(hits+misses)
system.l2.CleanEvict_mshr_misses::.writebacks      2681421                       # number of CleanEvict MSHR misses
system.l2.CleanEvict_mshr_misses::total       2681421                       # number of CleanEvict MSHR misses
system.l2.CleanEvict_mshr_miss_rate::.writebacks          inf                       # mshr miss rate for CleanEvict accesses
system.l2.CleanEvict_mshr_miss_rate::total          inf                       # mshr miss rate for CleanEvict accesses
system.l2.ReadExReq_misses::.switch_cpus.data          221                       # number of ReadExReq misses
system.l2.ReadExReq_misses::total                 221                       # number of ReadExReq misses
system.l2.ReadExReq_miss_latency::.switch_cpus.data     19655500                       # number of ReadExReq miss cycles
system.l2.ReadExReq_miss_latency::total      19655500                       # number of ReadExReq miss cycles
system.l2.ReadExReq_accesses::.switch_cpus.data          221                       # number of ReadExReq accesses(hits+misses)
system.l2.ReadExReq_accesses::total               221                       # number of ReadExReq accesses(hits+misses)
system.l2.ReadExReq_miss_rate::.switch_cpus.data            1                       # miss rate for ReadExReq accesses
system.l2.ReadExReq_miss_rate::total                1                       # miss rate for ReadExReq accesses
system.l2.ReadExReq_avg_miss_latency::.switch_cpus.data 88938.914027                       # average ReadExReq miss latency
system.l2.ReadExReq_avg_miss_latency::total 88938.914027                       # average ReadExReq miss latency
system.l2.ReadExReq_mshr_misses::.switch_cpus.data          221                       # number of ReadExReq MSHR misses
system.l2.ReadExReq_mshr_misses::total            221                       # number of ReadExReq MSHR misses
system.l2.ReadExReq_mshr_miss_latency::.switch_cpus.data     17445500                       # number of ReadExReq MSHR miss cycles
system.l2.ReadExReq_mshr_miss_latency::total     17445500                       # number of ReadExReq MSHR miss cycles
system.l2.ReadExReq_mshr_miss_rate::.switch_cpus.data            1                       # mshr miss rate for ReadExReq accesses
system.l2.ReadExReq_mshr_miss_rate::total            1                       # mshr miss rate for ReadExReq accesses
system.l2.ReadExReq_avg_mshr_miss_latency::.switch_cpus.data 78938.914027                       # average ReadExReq mshr miss latency
system.l2.ReadExReq_avg_mshr_miss_latency::total 78938.914027                       # average ReadExReq mshr miss latency
system.l2.ReadCleanReq_misses::.cpu.inst            2                       # number of ReadCleanReq misses
system.l2.ReadCleanReq_misses::.switch_cpus.inst           15                       # number of ReadCleanReq misses
system.l2.ReadCleanReq_misses::total               17                       # number of ReadCleanReq misses
system.l2.ReadCleanReq_miss_latency::.switch_cpus.inst      1175500                       # number of ReadCleanReq miss cycles
system.l2.ReadCleanReq_miss_latency::total      1175500                       # number of ReadCleanReq miss cycles
system.l2.ReadCleanReq_accesses::.cpu.inst            2                       # number of ReadCleanReq accesses(hits+misses)
system.l2.ReadCleanReq_accesses::.switch_cpus.inst           15                       # number of ReadCleanReq accesses(hits+misses)
system.l2.ReadCleanReq_accesses::total             17                       # number of ReadCleanReq accesses(hits+misses)
system.l2.ReadCleanReq_miss_rate::.cpu.inst            1                       # miss rate for ReadCleanReq accesses
system.l2.ReadCleanReq_miss_rate::.switch_cpus.inst            1                       # miss rate for ReadCleanReq accesses
system.l2.ReadCleanReq_miss_rate::total             1                       # miss rate for ReadCleanReq accesses
system.l2.ReadCleanReq_avg_miss_latency::.switch_cpus.inst 78366.666667                       # average ReadCleanReq miss latency
system.l2.ReadCleanReq_avg_miss_latency::total 69147.058824                       # average ReadCleanReq miss latency
system.l2.ReadCleanReq_mshr_misses::.switch_cpus.inst           15                       # number of ReadCleanReq MSHR misses
system.l2.ReadCleanReq_mshr_misses::total           15                       # number of ReadCleanReq MSHR misses
system.l2.ReadCleanReq_mshr_miss_latency::.switch_cpus.inst      1025500                       # number of ReadCleanReq MSHR miss cycles
system.l2.ReadCleanReq_mshr_miss_latency::total      1025500                       # number of ReadCleanReq MSHR miss cycles
system.l2.ReadCleanReq_mshr_miss_rate::.switch_cpus.inst            1                       # mshr miss rate for ReadCleanReq accesses
system.l2.ReadCleanReq_mshr_miss_rate::total     0.882353                       # mshr miss rate for ReadCleanReq accesses
system.l2.ReadCleanReq_avg_mshr_miss_latency::.switch_cpus.inst 68366.666667                       # average ReadCleanReq mshr miss latency
system.l2.ReadCleanReq_avg_mshr_miss_latency::total 68366.666667                       # average ReadCleanReq mshr miss latency
system.l2.ReadSharedReq_hits::.switch_cpus.data       336519                       # number of ReadSharedReq hits
system.l2.ReadSharedReq_hits::total            336519                       # number of ReadSharedReq hits
system.l2.ReadSharedReq_misses::.cpu.data            5                       # number of ReadSharedReq misses
system.l2.ReadSharedReq_misses::.switch_cpus.data      2708137                       # number of ReadSharedReq misses
system.l2.ReadSharedReq_misses::total         2708142                       # number of ReadSharedReq misses
system.l2.ReadSharedReq_miss_latency::.switch_cpus.data 215673131000                       # number of ReadSharedReq miss cycles
[...]
system.cpu.icache.tags.occ_percent::.switch_cpus.inst     0.000046                       # Average percentage of cache occupancy
system.cpu.icache.tags.occ_percent::total     0.000052                       # Average percentage of cache occupancy
system.cpu.icache.tags.occ_task_id_blocks::1024           17                       # Occupied blocks per task id
system.cpu.icache.tags.age_task_id_blocks_1024::4           17                       # Occupied blocks per task id
system.cpu.icache.tags.occ_task_id_percent::1024     0.033203                       # Percentage of cache occupancy per task id
system.cpu.icache.tags.tag_accesses          12833147                       # Number of tag accesses
system.cpu.icache.tags.data_accesses         12833147                       # Number of data accesses
system.cpu.dtb.walker.pwrStateResidencyTicks::UNDEFINED 258869846157000                       # Cumulative time (in ticks) in various power states
system.cpu.interrupts.clk_domain.clock           8000                       # Clock period in ticks
system.cpu.itb_walker_cache.pwrStateResidencyTicks::UNDEFINED 258869846157000                       # Cumulative time (in ticks) in various power states
system.cpu.itb_walker_cache.blocked_cycles::no_mshrs            0                       # number of cycles access was blocked
system.cpu.itb_walker_cache.blocked_cycles::no_targets            0                       # number of cycles access was blocked
system.cpu.itb_walker_cache.blocked::no_mshrs            0                       # number of cycles access was blocked
system.cpu.itb_walker_cache.blocked::no_targets            0                       # number of cycles access was blocked
system.cpu.itb_walker_cache.avg_blocked_cycles::no_mshrs          nan                       # average number of cycles each access was blocked
system.cpu.itb_walker_cache.avg_blocked_cycles::no_targets          nan                       # average number of cycles each access was blocked
system.cpu.itb_walker_cache.replacements            0                       # number of replacements
system.cpu.itb_walker_cache.tags.pwrStateResidencyTicks::UNDEFINED 258869846157000                       # Cumulative time (in ticks) in various power states
system.cpu.itb_walker_cache.tags.tagsinuse            0                       # Cycle average of tags in use
system.cpu.itb_walker_cache.tags.total_refs            0                       # Total number of references to valid blocks.
system.cpu.itb_walker_cache.tags.sampled_refs            0                       # Sample count of references to valid blocks.
system.cpu.itb_walker_cache.tags.avg_refs          nan                       # Average number of references to valid blocks.
system.cpu.itb_walker_cache.tags.warmup_cycle            0                       # Cycle when the warmup percentage was hit.
system.cpu.itb_walker_cache.tags.tag_accesses            0                       # Number of tag accesses
system.cpu.itb_walker_cache.tags.data_accesses            0                       # Number of data accesses
system.cpu.itb.walker.pwrStateResidencyTicks::UNDEFINED 258869846157000                       # Cumulative time (in ticks) in various power states
system.cpu.dtb_walker_cache.pwrStateResidencyTicks::UNDEFINED 258869846157000                       # Cumulative time (in ticks) in various power states
system.cpu.dtb_walker_cache.blocked_cycles::no_mshrs            0                       # number of cycles access was blocked
system.cpu.dtb_walker_cache.blocked_cycles::no_targets            0                       # number of cycles access was blocked
system.cpu.dtb_walker_cache.blocked::no_mshrs            0                       # number of cycles access was blocked
system.cpu.dtb_walker_cache.blocked::no_targets            0                       # number of cycles access was blocked
system.cpu.dtb_walker_cache.avg_blocked_cycles::no_mshrs          nan                       # average number of cycles each access was blocked
system.cpu.dtb_walker_cache.avg_blocked_cycles::no_targets          nan                       # average number of cycles each access was blocked
system.cpu.dtb_walker_cache.replacements            0                       # number of replacements
system.cpu.dtb_walker_cache.tags.pwrStateResidencyTicks::UNDEFINED 258869846157000                       # Cumulative time (in ticks) in various power states
system.cpu.dtb_walker_cache.tags.tagsinuse            0                       # Cycle average of tags in use
system.cpu.dtb_walker_cache.tags.total_refs            0                       # Total number of references to valid blocks.
system.cpu.dtb_walker_cache.tags.sampled_refs            0                       # Sample count of references to valid blocks.
system.cpu.dtb_walker_cache.tags.avg_refs          nan                       # Average number of references to valid blocks.
system.cpu.dtb_walker_cache.tags.warmup_cycle            0                       # Cycle when the warmup percentage was hit.
system.cpu.dtb_walker_cache.tags.tag_accesses            0                       # Number of tag accesses
system.cpu.dtb_walker_cache.tags.data_accesses            0                       # Number of data accesses
system.cpu.dcache.pwrStateResidencyTicks::UNDEFINED 258869846157000                       # Cumulative time (in ticks) in various power states
system.cpu.dcache.demand_hits::.switch_cpus.data      7181224                       # number of demand (read+write) hits
system.cpu.dcache.demand_hits::total          7181224                       # number of demand (read+write) hits
system.cpu.dcache.overall_hits::.switch_cpus.data      7181224                       # number of overall hits
system.cpu.dcache.overall_hits::total         7181224                       # number of overall hits
system.cpu.dcache.demand_misses::.cpu.data            5                       # number of demand (read+write) misses
system.cpu.dcache.demand_misses::.switch_cpus.data     12998256                       # number of demand (read+write) misses
system.cpu.dcache.demand_misses::total       12998261                       # number of demand (read+write) misses
system.cpu.dcache.overall_misses::.cpu.data            5                       # number of overall misses
system.cpu.dcache.overall_misses::.switch_cpus.data     12998256                       # number of overall misses
system.cpu.dcache.overall_misses::total      12998261                       # number of overall misses
system.cpu.dcache.demand_miss_latency::.switch_cpus.data 971499962000                       # number of demand (read+write) miss cycles
system.cpu.dcache.demand_miss_latency::total 971499962000                       # number of demand (read+write) miss cycles
system.cpu.dcache.overall_miss_latency::.switch_cpus.data 971499962000                       # number of overall miss cycles
system.cpu.dcache.overall_miss_latency::total 971499962000                       # number of overall miss cycles
system.cpu.dcache.demand_accesses::.cpu.data            5                       # number of demand (read+write) accesses
system.cpu.dcache.demand_accesses::.switch_cpus.data     20179480                       # number of demand (read+write) accesses
system.cpu.dcache.demand_accesses::total     20179485                       # number of demand (read+write) accesses
system.cpu.dcache.overall_accesses::.cpu.data            5                       # number of overall (read+write) accesses
system.cpu.dcache.overall_accesses::.switch_cpus.data     20179480                       # number of overall (read+write) accesses
system.cpu.dcache.overall_accesses::total     20179485                       # number of overall (read+write) accesses
system.cpu.dcache.demand_miss_rate::.cpu.data            1                       # miss rate for demand accesses
system.cpu.dcache.demand_miss_rate::.switch_cpus.data     0.644132                       # miss rate for demand accesses
system.cpu.dcache.demand_miss_rate::total     0.644132                       # miss rate for demand accesses
system.cpu.dcache.overall_miss_rate::.cpu.data            1                       # miss rate for overall accesses
system.cpu.dcache.overall_miss_rate::.switch_cpus.data     0.644132                       # miss rate for overall accesses
system.cpu.dcache.overall_miss_rate::total     0.644132                       # miss rate for overall accesses
system.cpu.dcache.demand_avg_miss_latency::.switch_cpus.data 74740.793073                       # average overall miss latency
system.cpu.dcache.demand_avg_miss_latency::total 74740.764322                       # average overall miss latency
system.cpu.dcache.overall_avg_miss_latency::.switch_cpus.data 74740.793073                       # average overall miss latency
system.cpu.dcache.overall_avg_miss_latency::total 74740.764322                       # average overall miss latency
system.cpu.dcache.blocked_cycles::no_mshrs     28858380                       # number of cycles access was blocked
system.cpu.dcache.blocked_cycles::no_targets            0                       # number of cycles access was blocked
system.cpu.dcache.blocked::no_mshrs           1514222                       # number of cycles access was blocked
system.cpu.dcache.blocked::no_targets               0                       # number of cycles access was blocked
system.cpu.dcache.avg_blocked_cycles::no_mshrs    19.058223                       # average number of cycles each access was blocked
system.cpu.dcache.avg_blocked_cycles::no_targets          nan                       # average number of cycles each access was blocked
system.cpu.dcache.writebacks::.writebacks         1948                       # number of writebacks
system.cpu.dcache.writebacks::total              1948                       # number of writebacks
system.cpu.dcache.demand_mshr_hits::.switch_cpus.data       874695                       # number of demand (read+write) MSHR hits
system.cpu.dcache.demand_mshr_hits::total       874695                       # number of demand (read+write) MSHR hits
system.cpu.dcache.overall_mshr_hits::.switch_cpus.data       874695                       # number of overall MSHR hits
system.cpu.dcache.overall_mshr_hits::total       874695                       # number of overall MSHR hits
system.cpu.dcache.demand_mshr_misses::.switch_cpus.data     12123561                       # number of demand (read+write) MSHR misses
system.cpu.dcache.demand_mshr_misses::total     12123561                       # number of demand (read+write) MSHR misses
system.cpu.dcache.overall_mshr_misses::.switch_cpus.data     12123561                       # number of overall MSHR misses
system.cpu.dcache.overall_mshr_misses::total     12123561                       # number of overall MSHR misses
system.cpu.dcache.demand_mshr_miss_latency::.switch_cpus.data 899909448500                       # number of demand (read+write) MSHR miss cycles
system.cpu.dcache.demand_mshr_miss_latency::total 899909448500                       # number of demand (read+write) MSHR miss cycles
system.cpu.dcache.overall_mshr_miss_latency::.switch_cpus.data 899909448500                       # number of overall MSHR miss cycles
system.cpu.dcache.overall_mshr_miss_latency::total 899909448500                       # number of overall MSHR miss cycles
system.cpu.dcache.demand_mshr_miss_rate::.switch_cpus.data     0.600787                       # mshr miss rate for demand accesses
system.cpu.dcache.demand_mshr_miss_rate::total     0.600786                       # mshr miss rate for demand accesses
system.cpu.dcache.overall_mshr_miss_rate::.switch_cpus.data     0.600787                       # mshr miss rate for overall accesses
system.cpu.dcache.overall_mshr_miss_rate::total     0.600786                       # mshr miss rate for overall accesses
system.cpu.dcache.demand_avg_mshr_miss_latency::.switch_cpus.data 74228.145386                       # average overall mshr miss latency
system.cpu.dcache.demand_avg_mshr_miss_latency::total 74228.145386                       # average overall mshr miss latency
system.cpu.dcache.overall_avg_mshr_miss_latency::.switch_cpus.data 74228.145386                       # average overall mshr miss latency
system.cpu.dcache.overall_avg_mshr_miss_latency::total 74228.145386                       # average overall mshr miss latency
system.cpu.dcache.replacements               12122541                       # number of replacements
system.cpu.dcache.ReadReq_hits::.switch_cpus.data      7180402                       # number of ReadReq hits
system.cpu.dcache.ReadReq_hits::total         7180402                       # number of ReadReq hits
system.cpu.dcache.ReadReq_misses::.cpu.data            5                       # number of ReadReq misses
system.cpu.dcache.ReadReq_misses::.switch_cpus.data     12997436                       # number of ReadReq misses
system.cpu.dcache.ReadReq_misses::total      12997441                       # number of ReadReq misses
system.cpu.dcache.ReadReq_miss_latency::.switch_cpus.data 971424554000                       # number of ReadReq miss cycles
system.cpu.dcache.ReadReq_miss_latency::total 971424554000                       # number of ReadReq miss cycles
system.cpu.dcache.ReadReq_accesses::.cpu.data            5                       # number of ReadReq accesses(hits+misses)
system.cpu.dcache.ReadReq_accesses::.switch_cpus.data     20177838                       # number of ReadReq accesses(hits+misses)
system.cpu.dcache.ReadReq_accesses::total     20177843                       # number of ReadReq accesses(hits+misses)
system.cpu.dcache.ReadReq_miss_rate::.cpu.data            1                       # miss rate for ReadReq accesses
system.cpu.dcache.ReadReq_miss_rate::.switch_cpus.data     0.644144                       # miss rate for ReadReq accesses
system.cpu.dcache.ReadReq_miss_rate::total     0.644144                       # miss rate for ReadReq accesses
system.cpu.dcache.ReadReq_avg_miss_latency::.switch_cpus.data 74739.706662                       # average ReadReq miss latency
system.cpu.dcache.ReadReq_avg_miss_latency::total 74739.677910                       # average ReadReq miss latency
system.cpu.dcache.ReadReq_mshr_hits::.switch_cpus.data       874695                       # number of ReadReq MSHR hits
system.cpu.dcache.ReadReq_mshr_hits::total       874695                       # number of ReadReq MSHR hits
system.cpu.dcache.ReadReq_mshr_misses::.switch_cpus.data     12122741                       # number of ReadReq MSHR misses
system.cpu.dcache.ReadReq_mshr_misses::total     12122741                       # number of ReadReq MSHR misses
system.cpu.dcache.ReadReq_mshr_miss_latency::.switch_cpus.data 899834860500                       # number of ReadReq MSHR miss cycles
system.cpu.dcache.ReadReq_mshr_miss_latency::total 899834860500                       # number of ReadReq MSHR miss cycles
system.cpu.dcache.ReadReq_mshr_miss_rate::.switch_cpus.data     0.600795                       # mshr miss rate for ReadReq accesses
system.cpu.dcache.ReadReq_mshr_miss_rate::total     0.600795                       # mshr miss rate for ReadReq accesses
system.cpu.dcache.ReadReq_avg_mshr_miss_latency::.switch_cpus.data 74227.013552                       # average ReadReq mshr miss latency
system.cpu.dcache.ReadReq_avg_mshr_miss_latency::total 74227.013552                       # average ReadReq mshr miss latency
system.cpu.dcache.WriteReq_hits::.switch_cpus.data          822                       # number of WriteReq hits
system.cpu.dcache.WriteReq_hits::total            822                       # number of WriteReq hits
system.cpu.dcache.WriteReq_misses::.switch_cpus.data          820                       # number of WriteReq misses
system.cpu.dcache.WriteReq_misses::total          820                       # number of WriteReq misses
system.cpu.dcache.WriteReq_miss_latency::.switch_cpus.data     75408000                       # number of WriteReq miss cycles
system.cpu.dcache.WriteReq_miss_latency::total     75408000                       # number of WriteReq miss cycles
system.cpu.dcache.WriteReq_accesses::.switch_cpus.data         1642                       # number of WriteReq accesses(hits+misses)
system.cpu.dcache.WriteReq_accesses::total         1642                       # number of WriteReq accesses(hits+misses)
system.cpu.dcache.WriteReq_miss_rate::.switch_cpus.data     0.499391                       # miss rate for WriteReq accesses
system.cpu.dcache.WriteReq_miss_rate::total     0.499391                       # miss rate for WriteReq accesses
system.cpu.dcache.WriteReq_avg_miss_latency::.switch_cpus.data 91960.975610                       # average WriteReq miss latency
system.cpu.dcache.WriteReq_avg_miss_latency::total 91960.975610                       # average WriteReq miss latency
system.cpu.dcache.WriteReq_mshr_misses::.switch_cpus.data          820                       # number of WriteReq MSHR misses
system.cpu.dcache.WriteReq_mshr_misses::total          820                       # number of WriteReq MSHR misses
system.cpu.dcache.WriteReq_mshr_miss_latency::.switch_cpus.data     74588000                       # number of WriteReq MSHR miss cycles
system.cpu.dcache.WriteReq_mshr_miss_latency::total     74588000                       # number of WriteReq MSHR miss cycles
system.cpu.dcache.WriteReq_mshr_miss_rate::.switch_cpus.data     0.499391                       # mshr miss rate for WriteReq accesses
system.cpu.dcache.WriteReq_mshr_miss_rate::total     0.499391                       # mshr miss rate for WriteReq accesses
system.cpu.dcache.WriteReq_avg_mshr_miss_latency::.switch_cpus.data 90960.975610                       # average WriteReq mshr miss latency
system.cpu.dcache.WriteReq_avg_mshr_miss_latency::total 90960.975610                       # average WriteReq mshr miss latency
system.cpu.dcache.tags.pwrStateResidencyTicks::UNDEFINED 258869846157000                       # Cumulative time (in ticks) in various power states
system.cpu.dcache.tags.tagsinuse             1.610055                       # Cycle average of tags in use
system.cpu.dcache.tags.total_refs            19304789                       # Total number of references to valid blocks.
system.cpu.dcache.tags.sampled_refs          12123565                       # Sample count of references to valid blocks.
system.cpu.dcache.tags.avg_refs              1.592336                       # Average number of references to valid blocks.
system.cpu.dcache.tags.warmup_cycle      258462801546000                       # Cycle when the warmup percentage was hit.
system.cpu.dcache.tags.occ_blocks::.cpu.data     0.000002                       # Average occupied blocks per requestor
system.cpu.dcache.tags.occ_blocks::.switch_cpus.data     1.610053                       # Average occupied blocks per requestor
system.cpu.dcache.tags.occ_percent::.cpu.data     0.000000                       # Average percentage of cache occupancy
system.cpu.dcache.tags.occ_percent::.switch_cpus.data     0.001572                       # Average percentage of cache occupancy
system.cpu.dcache.tags.occ_percent::total     0.001572                       # Average percentage of cache occupancy
system.cpu.dcache.tags.occ_task_id_blocks::1024         1024                       # Occupied blocks per task id
system.cpu.dcache.tags.age_task_id_blocks_1024::0          257                       # Occupied blocks per task id
system.cpu.dcache.tags.age_task_id_blocks_1024::1          767                       # Occupied blocks per task id
system.cpu.dcache.tags.occ_task_id_percent::1024            1                       # Percentage of cache occupancy per task id
system.cpu.dcache.tags.tag_accesses          52482535                       # Number of tag accesses
system.cpu.dcache.tags.data_accesses         52482535                       # Number of data accesses

---------- End Simulation Statistics   ----------
