
---------- Begin Simulation Statistics ----------
final_tick                               270775869205000                       # Number of ticks from beginning of simulation (restored from checkpoints and never reset)
host_inst_rate                                  34099                       # Simulator instruction rate (inst/s)
host_mem_usage                                 805924                       # Number of bytes of host memory used
host_op_rate                                    56944                       # Simulator op (including micro ops) rate (op/s)
host_seconds                                   293.27                       # Real time elapsed on the host
host_tick_rate                               29287852                       # Simulator tick rate (ticks/s)
sim_freq                                 1000000000000                       # Frequency of simulated ticks
sim_insts                                    10000010                       # Number of instructions simulated
sim_ops                                      16699646                       # Number of ops (including micro ops) simulated
sim_seconds                                  0.008589                       # Number of seconds simulated
sim_ticks                                  8589151250                       # Number of ticks simulated
system.cpu.Branches                                 1                       # Number of branches fetched
system.cpu.committedInsts                           7                       # Number of instructions committed
system.cpu.committedOps                            18                       # Number of ops (including micro ops) committed
system.cpu.dtb.rdAccesses                           5                       # TLB accesses on read requests
system.cpu.dtb.rdMisses                             0                       # TLB misses on read requests
system.cpu.dtb.wrAccesses                           1                       # TLB accesses on write requests
system.cpu.dtb.wrMisses                             0                       # TLB misses on write requests
system.cpu.idle_fraction                            0                       # Percentage of idle cycles
system.cpu.itb.rdAccesses                           0                       # TLB accesses on read requests
system.cpu.itb.rdMisses                             0                       # TLB misses on read requests
system.cpu.itb.wrAccesses                           9                       # TLB accesses on write requests
system.cpu.itb.wrMisses                             0                       # TLB misses on write requests
system.cpu.not_idle_fraction                        1                       # Percentage of non-idle cycles
system.cpu.numCycles                               20                       # number of cpu cycles simulated
system.cpu.numWorkItemsCompleted                    0                       # number of work items this cpu completed
system.cpu.numWorkItemsStarted                      0                       # number of work items this cpu started
system.cpu.num_busy_cycles                         20                       # Number of busy cycles
system.cpu.num_cc_register_writes                   2                       # number of times the CC registers were written
system.cpu.num_conditional_control_insts            0                       # number of instructions that are conditional controls
system.cpu.num_fp_alu_accesses                      0                       # Number of float alu accesses
system.cpu.num_fp_insts                             0                       # number of float instructions
system.cpu.num_fp_register_reads                    0                       # number of times the floating registers were read
system.cpu.num_fp_register_writes                   0                       # number of times the floating registers were written
system.cpu.num_func_calls                           1                       # number of times a function call or return occured
system.cpu.num_idle_cycles                          0                       # Number of idle cycles
system.cpu.num_int_alu_accesses                    18                       # Number of integer alu accesses
system.cpu.num_int_insts                           18                       # number of integer instructions
system.cpu.num_int_register_reads                  40                       # number of times the integer registers were read
system.cpu.num_int_register_writes                 16                       # number of times the integer registers were written
system.cpu.num_load_insts                           5                       # Number of load instructions
system.cpu.num_mem_refs                             6                       # number of memory refs
system.cpu.num_store_insts                          1                       # Number of store instructions
system.cpu.num_vec_alu_accesses                     0                       # Number of vector alu accesses
system.cpu.num_vec_insts                            0                       # number of vector instructions
system.cpu.num_vec_register_reads                   0                       # number of times the vector registers were read
system.cpu.num_vec_register_writes                  0                       # number of times the vector registers were written
system.cpu.op_class::No_OpClass                     0      0.00%      0.00% # Class of executed instruction
system.cpu.op_class::IntAlu                        12     66.67%     66.67% # Class of executed instruction
system.cpu.op_class::IntMult                        0      0.00%     66.67% # Class of executed instruction
system.cpu.op_class::IntDiv                         0      0.00%     66.67% # Class of executed instruction
system.cpu.op_class::FloatAdd                       0      0.00%     66.67% # Class of executed instruction
system.cpu.op_class::FloatCmp                       0      0.00%     66.67% # Class of executed instruction
system.cpu.op_class::FloatCvt                       0      0.00%     66.67% # Class of executed instruction
system.cpu.op_class::FloatMult                      0      0.00%     66.67% # Class of executed instruction
system.cpu.op_class::FloatMultAcc                   0      0.00%     66.67% # Class of executed instruction
system.cpu.op_class::FloatDiv                       0      0.00%     66.67% # Class of executed instruction
system.cpu.op_class::FloatMisc                      0      0.00%     66.67% # Class of executed instruction
system.cpu.op_class::FloatSqrt                      0      0.00%     66.67% # Class of executed instruction
system.cpu.op_class::SimdAdd                        0      0.00%     66.67% # Class of executed instruction
system.cpu.op_class::SimdAddAcc                     0      0.00%     66.67% # Class of executed instruction
system.cpu.op_class::SimdAlu                        0      0.00%     66.67% # Class of executed instruction
system.cpu.op_class::SimdCmp                        0      0.00%     66.67% # Class of executed instruction
system.cpu.op_class::SimdCvt                        0      0.00%     66.67% # Class of executed instruction
system.cpu.op_class::SimdMisc                       0      0.00%     66.67% # Class of executed instruction
system.cpu.op_class::SimdMult                       0      0.00%     66.67% # Class of executed instruction
system.cpu.op_class::SimdMultAcc                    0      0.00%     66.67% # Class of executed instruction
system.cpu.op_class::SimdShift                      0      0.00%     66.67% # Class of executed instruction
system.cpu.op_class::SimdShiftAcc                   0      0.00%     66.67% # Class of executed instruction
system.cpu.op_class::SimdDiv                        0      0.00%     66.67% # Class of executed instruction
system.cpu.op_class::SimdSqrt                       0      0.00%     66.67% # Class of executed instruction
system.cpu.op_class::SimdFloatAdd                   0      0.00%     66.67% # Class of executed instruction
system.cpu.op_class::SimdFloatAlu                   0      0.00%     66.67% # Class of executed instruction
system.cpu.op_class::SimdFloatCmp                   0      0.00%     66.67% # Class of executed instruction
system.cpu.op_class::SimdFloatCvt                   0      0.00%     66.67% # Class of executed instruction
system.cpu.op_class::SimdFloatDiv                   0      0.00%     66.67% # Class of executed instruction
system.cpu.op_class::SimdFloatMisc                  0      0.00%     66.67% # Class of executed instruction
system.cpu.op_class::SimdFloatMult                  0      0.00%     66.67% # Class of executed instruction
system.cpu.op_class::SimdFloatMultAcc               0      0.00%     66.67% # Class of executed instruction
system.cpu.op_class::SimdFloatSqrt                  0      0.00%     66.67% # Class of executed instruction
system.cpu.op_class::SimdReduceAdd                  0      0.00%     66.67% # Class of executed instruction
system.cpu.op_class::SimdReduceAlu                  0      0.00%     66.67% # Class of executed instruction
system.cpu.op_class::SimdReduceCmp                  0      0.00%     66.67% # Class of executed instruction
system.cpu.op_class::SimdFloatReduceAdd             0      0.00%     66.67% # Class of executed instruction
system.cpu.op_class::SimdFloatReduceCmp             0      0.00%     66.67% # Class of executed instruction
system.cpu.op_class::SimdAes                        0      0.00%     66.67% # Class of executed instruction
system.cpu.op_class::SimdAesMix                     0      0.00%     66.67% # Class of executed instruction
system.cpu.op_class::SimdSha1Hash                   0      0.00%     66.67% # Class of executed instruction
system.cpu.op_class::SimdSha1Hash2                  0      0.00%     66.67% # Class of executed instruction
system.cpu.op_class::SimdSha256Hash                 0      0.00%     66.67% # Class of executed instruction
system.cpu.op_class::SimdSha256Hash2                0      0.00%     66.67% # Class of executed instruction
system.cpu.op_class::SimdShaSigma2                  0      0.00%     66.67% # Class of executed instruction
system.cpu.op_class::SimdShaSigma3                  0      0.00%     66.67% # Class of executed instruction
system.cpu.op_class::SimdPredAlu                    0      0.00%     66.67% # Class of executed instruction
system.cpu.op_class::MemRead                        5     27.78%     94.44% # Class of executed instruction
system.cpu.op_class::MemWrite                       1      5.56%    100.00% # Class of executed instruction
system.cpu.op_class::FloatMemRead                   0      0.00%    100.00% # Class of executed instruction
system.cpu.op_class::FloatMemWrite                  0      0.00%    100.00% # Class of executed instruction
system.cpu.op_class::IprAccess                      0      0.00%    100.00% # Class of executed instruction
system.cpu.op_class::InstPrefetch                   0      0.00%    100.00% # Class of executed instruction
system.cpu.op_class::total                         18                       # Class of executed instruction
system.cpu.workload.numSyscalls                     0                       # Number of system calls
system.membus.snoop_filter.hit_multi_requests            0                       # Number of requests hitting in the snoop filter with multiple (>1) holders of the requested data.
system.membus.snoop_filter.hit_multi_snoops            0                       # Number of snoops hitting in the snoop filter with multiple (>1) holders of the requested data.
system.membus.snoop_filter.hit_single_requests       144402                       # Number of requests hitting in the snoop filter with a single holder of the requested data.
system.membus.snoop_filter.hit_single_snoops            0                       # Number of snoops hitting in the snoop filter with a single holder of the requested data.
system.membus.snoop_filter.tot_requests        297495                       # Total number of requests made to the snoop filter.
system.membus.snoop_filter.tot_snoops               0                       # Total number of snoops made to the snoop filter.
system.switch_cpus.branchPred.BTBCorrect            0                       # Number of correct BTB predictions (this stat may not work properly.
system.switch_cpus.branchPred.BTBHitPct      0.000000                       # BTB Hit Percentage
system.switch_cpus.branchPred.BTBHits               0                       # Number of BTB hits
system.switch_cpus.branchPred.BTBLookups      1222842                       # Number of BTB lookups
system.switch_cpus.branchPred.RASInCorrect           28                       # Number of incorrect RAS predictions.
system.switch_cpus.branchPred.condIncorrect        60406                       # Number of conditional branches incorrect
system.switch_cpus.branchPred.condPredicted      1255245                       # Number of conditional branches predicted
system.switch_cpus.branchPred.indirectHits       941251                       # Number of indirect target hits.
system.switch_cpus.branchPred.indirectLookups      1222842                       # Number of indirect predictor lookups.
system.switch_cpus.branchPred.indirectMisses       281591                       # Number of indirect misses.
system.switch_cpus.branchPred.lookups         1326392                       # Number of BP lookups
system.switch_cpus.branchPred.usedRAS           35472                       # Number of times the RAS was used to get a target.
system.switch_cpus.branchPredindirectMispredicted        12421                       # Number of mispredicted indirect branches.
system.switch_cpus.cc_regfile_reads           6144217                       # number of cc regfile reads
system.switch_cpus.cc_regfile_writes          4085377                       # number of cc regfile writes
system.switch_cpus.commit.amos                      0                       # Number of atomic instructions committed
system.switch_cpus.commit.branchMispredicts        60459                       # The number of times a branch was mispredicted
system.switch_cpus.commit.branches            1012410                       # Number of branches committed
system.switch_cpus.commit.bw_lim_events       1373840                       # number cycles where commit BW limit reached
system.switch_cpus.commit.commitSquashedInsts      2195470                       # The number of squashed insts skipped by commit
system.switch_cpus.commit.committedInsts     10000003                       # Number of instructions committed
system.switch_cpus.commit.committedOps       16699628                       # Number of ops (including micro ops) committed
system.switch_cpus.commit.committed_per_cycle::samples     16839367                       # Number of insts commited each cycle
system.switch_cpus.commit.committed_per_cycle::mean     0.991702                       # Number of insts commited each cycle
system.switch_cpus.commit.committed_per_cycle::stdev     2.355593                       # Number of insts commited each cycle
system.switch_cpus.commit.committed_per_cycle::underflows            0      0.00%      0.00% # Number of insts commited each cycle
system.switch_cpus.commit.committed_per_cycle::0     13354043     79.30%     79.30% # Number of insts commited each cycle
system.switch_cpus.commit.committed_per_cycle::1       949265      5.64%     84.94% # Number of insts commited each cycle
system.switch_cpus.commit.committed_per_cycle::2       118991      0.71%     85.65% # Number of insts commited each cycle
system.switch_cpus.commit.committed_per_cycle::3       191624      1.14%     86.78% # Number of insts commited each cycle
system.switch_cpus.commit.committed_per_cycle::4       479185      2.85%     89.63% # Number of insts commited each cycle
system.switch_cpus.commit.committed_per_cycle::5       254019      1.51%     91.14% # Number of insts commited each cycle
system.switch_cpus.commit.committed_per_cycle::6        68846      0.41%     91.55% # Number of insts commited each cycle
system.switch_cpus.commit.committed_per_cycle::7        49554      0.29%     91.84% # Number of insts commited each cycle
system.switch_cpus.commit.committed_per_cycle::8      1373840      8.16%    100.00% # Number of insts commited each cycle
system.switch_cpus.commit.committed_per_cycle::overflows            0      0.00%    100.00% # Number of insts commited each cycle
system.switch_cpus.commit.committed_per_cycle::min_value            0                       # Number of insts commited each cycle
system.switch_cpus.commit.committed_per_cycle::max_value            8                       # Number of insts commited each cycle
system.switch_cpus.commit.committed_per_cycle::total     16839367                       # Number of insts commited each cycle
system.switch_cpus.commit.fp_insts            9250008                       # Number of committed floating point instructions.
system.switch_cpus.commit.function_calls        18108                       # Number of function calls committed.
system.switch_cpus.commit.int_insts           9386149                       # Number of committed integer instructions.
system.switch_cpus.commit.loads               2651089                       # Number of loads committed
system.switch_cpus.commit.membars                   0                       # Number of memory barriers committed
system.switch_cpus.commit.op_class_0::No_OpClass        28068      0.17%      0.17% # Class of committed instruction
system.switch_cpus.commit.op_class_0::IntAlu      7077496     42.38%     42.55% # Class of committed instruction
system.switch_cpus.commit.op_class_0::IntMult           15      0.00%     42.55% # Class of committed instruction
system.switch_cpus.commit.op_class_0::IntDiv           77      0.00%     42.55% # Class of committed instruction
system.switch_cpus.commit.op_class_0::FloatAdd       834706      5.00%     47.55% # Class of committed instruction
system.switch_cpus.commit.op_class_0::FloatCmp            0      0.00%     47.55% # Class of committed instruction
system.switch_cpus.commit.op_class_0::FloatCvt            0      0.00%     47.55% # Class of committed instruction
system.switch_cpus.commit.op_class_0::FloatMult            0      0.00%     47.55% # Class of committed instruction
system.switch_cpus.commit.op_class_0::FloatMultAcc            0      0.00%     47.55% # Class of committed instruction
system.switch_cpus.commit.op_class_0::FloatDiv            0      0.00%     47.55% # Class of committed instruction
system.switch_cpus.commit.op_class_0::FloatMisc            0      0.00%     47.55% # Class of committed instruction
system.switch_cpus.commit.op_class_0::FloatSqrt            0      0.00%     47.55% # Class of committed instruction
system.switch_cpus.commit.op_class_0::SimdAdd            0      0.00%     47.55% # Class of committed instruction
system.switch_cpus.commit.op_class_0::SimdAddAcc            0      0.00%     47.55% # Class of committed instruction
system.switch_cpus.commit.op_class_0::SimdAlu      1472440      8.82%     56.37% # Class of committed instruction
system.switch_cpus.commit.op_class_0::SimdCmp            0      0.00%     56.37% # Class of committed instruction
system.switch_cpus.commit.op_class_0::SimdCvt            6      0.00%     56.37% # Class of committed instruction
system.switch_cpus.commit.op_class_0::SimdMisc        40222      0.24%     56.61% # Class of committed instruction
system.switch_cpus.commit.op_class_0::SimdMult            0      0.00%     56.61% # Class of committed instruction
system.switch_cpus.commit.op_class_0::SimdMultAcc            0      0.00%     56.61% # Class of committed instruction
system.switch_cpus.commit.op_class_0::SimdShift            0      0.00%     56.61% # Class of committed instruction
system.switch_cpus.commit.op_class_0::SimdShiftAcc            0      0.00%     56.61% # Class of committed instruction
system.switch_cpus.commit.op_class_0::SimdDiv            0      0.00%     56.61% # Class of committed instruction
system.switch_cpus.commit.op_class_0::SimdSqrt            0      0.00%     56.61% # Class of committed instruction
system.switch_cpus.commit.op_class_0::SimdFloatAdd      1392117      8.34%     64.94% # Class of committed instruction
system.switch_cpus.commit.op_class_0::SimdFloatAlu            0      0.00%     64.94% # Class of committed instruction
system.switch_cpus.commit.op_class_0::SimdFloatCmp        20118      0.12%     65.06% # Class of committed instruction
system.switch_cpus.commit.op_class_0::SimdFloatCvt      1492478      8.94%     74.00% # Class of committed instruction
system.switch_cpus.commit.op_class_0::SimdFloatDiv            0      0.00%     74.00% # Class of committed instruction
system.switch_cpus.commit.op_class_0::SimdFloatMisc            0      0.00%     74.00% # Class of committed instruction
system.switch_cpus.commit.op_class_0::SimdFloatMult      1432276      8.58%     82.58% # Class of committed instruction
system.switch_cpus.commit.op_class_0::SimdFloatMultAcc            0      0.00%     82.58% # Class of committed instruction
system.switch_cpus.commit.op_class_0::SimdFloatSqrt            0      0.00%     82.58% # Class of committed instruction
system.switch_cpus.commit.op_class_0::SimdReduceAdd            0      0.00%     82.58% # Class of committed instruction
system.switch_cpus.commit.op_class_0::SimdReduceAlu            0      0.00%     82.58% # Class of committed instruction
system.switch_cpus.commit.op_class_0::SimdReduceCmp            0      0.00%     82.58% # Class of committed instruction
system.switch_cpus.commit.op_class_0::SimdFloatReduceAdd            0      0.00%     82.58% # Class of committed instruction
system.switch_cpus.commit.op_class_0::SimdFloatReduceCmp            0      0.00%     82.58% # Class of committed instruction
system.switch_cpus.commit.op_class_0::SimdAes            0      0.00%     82.58% # Class of committed instruction
system.switch_cpus.commit.op_class_0::SimdAesMix            0      0.00%     82.58% # Class of committed instruction
system.switch_cpus.commit.op_class_0::SimdSha1Hash            0      0.00%     82.58% # Class of committed instruction
system.switch_cpus.commit.op_class_0::SimdSha1Hash2            0      0.00%     82.58% # Class of committed instruction
system.switch_cpus.commit.op_class_0::SimdSha256Hash            0      0.00%     82.58% # Class of committed instruction
system.switch_cpus.commit.op_class_0::SimdSha256Hash2            0      0.00%     82.58% # Class of committed instruction
system.switch_cpus.commit.op_class_0::SimdShaSigma2            0      0.00%     82.58% # Class of committed instruction
system.switch_cpus.commit.op_class_0::SimdShaSigma3            0      0.00%     82.58% # Class of committed instruction
system.switch_cpus.commit.op_class_0::SimdPredAlu            0      0.00%     82.58% # Class of committed instruction
system.switch_cpus.commit.op_class_0::MemRead       789848      4.73%     87.31% # Class of committed instruction
system.switch_cpus.commit.op_class_0::MemWrite       194915      1.17%     88.47% # Class of committed instruction
system.switch_cpus.commit.op_class_0::FloatMemRead      1861241     11.15%     99.62% # Class of committed instruction
system.switch_cpus.commit.op_class_0::FloatMemWrite        63605      0.38%    100.00% # Class of committed instruction
system.switch_cpus.commit.op_class_0::IprAccess            0      0.00%    100.00% # Class of committed instruction
system.switch_cpus.commit.op_class_0::InstPrefetch            0      0.00%    100.00% # Class of committed instruction
system.switch_cpus.commit.op_class_0::total     16699628                       # Class of committed instruction
system.switch_cpus.commit.refs                2909609                       # Number of memory references committed
system.switch_cpus.commit.swp_count                 0                       # Number of s/w prefetches committed
system.switch_cpus.commit.vec_insts                 0                       # Number of committed Vector instructions.
system.switch_cpus.committedInsts            10000003                       # Number of Instructions Simulated
system.switch_cpus.committedOps              16699628                       # Number of Ops (including micro ops) Simulated
system.switch_cpus.cpi                       1.717828                       # CPI: Cycles Per Instruction
system.switch_cpus.cpi_total                 1.717828                       # CPI: Total CPI of All Threads
system.switch_cpus.decode.BlockedCycles      13307866                       # Number of cycles decode is blocked
system.switch_cpus.decode.DecodedInsts       19627552                       # Number of instructions handled by decode
system.switch_cpus.decode.IdleCycles          1011615                       # Number of cycles decode is idle
system.switch_cpus.decode.RunCycles           1893911                       # Number of cycles decode is running
system.switch_cpus.decode.SquashCycles          60651                       # Number of cycles decode is squashing
system.switch_cpus.decode.UnblockCycles        875606                       # Number of cycles decode is unblocking
system.switch_cpus.dtb.rdAccesses             3017555                       # TLB accesses on read requests
system.switch_cpus.dtb.rdMisses                 10951                       # TLB misses on read requests
system.switch_cpus.dtb.wrAccesses              289405                       # TLB accesses on write requests
system.switch_cpus.dtb.wrMisses                   608                       # TLB misses on write requests
system.switch_cpus.fetch.Branches             1326392                       # Number of branches that fetch encountered
system.switch_cpus.fetch.CacheLines           1491184                       # Number of cache lines fetched
system.switch_cpus.fetch.Cycles              15550743                       # Number of cycles fetch has run and was not squashing or blocked
system.switch_cpus.fetch.IcacheSquashes         12195                       # Number of outstanding Icache misses that were squashed
system.switch_cpus.fetch.Insts               12388624                       # Number of instructions fetch has processed
system.switch_cpus.fetch.MiscStallCycles           48                       # Number of cycles fetch has spent waiting on interrupts, or bad addresses, or out of MSHRs
system.switch_cpus.fetch.PendingTrapStallCycles         1528                       # Number of stall cycles due to pending traps
system.switch_cpus.fetch.SquashCycles          121302                       # Number of cycles fetch has spent squashing
system.switch_cpus.fetch.branchRate          0.077213                       # Number of branch fetches per cycle
system.switch_cpus.fetch.icacheStallCycles      1536680                       # Number of cycles fetch is stalled on an Icache miss
system.switch_cpus.fetch.predictedBranches       976723                       # Number of branches that fetch has predicted taken
system.switch_cpus.fetch.rate                0.721179                       # Number of inst fetches per cycle
system.switch_cpus.fetch.rateDist::samples     17149650                       # Number of instructions fetched each cycle (Total)
system.switch_cpus.fetch.rateDist::mean      1.210793                       # Number of instructions fetched each cycle (Total)
system.switch_cpus.fetch.rateDist::stdev     2.623170                       # Number of instructions fetched each cycle (Total)
system.switch_cpus.fetch.rateDist::underflows            0      0.00%      0.00% # Number of instructions fetched each cycle (Total)
system.switch_cpus.fetch.rateDist::0         13617911     79.41%     79.41% # Number of instructions fetched each cycle (Total)
system.switch_cpus.fetch.rateDist::1           310229      1.81%     81.22% # Number of instructions fetched each cycle (Total)
system.switch_cpus.fetch.rateDist::2           187272      1.09%     82.31% # Number of instructions fetched each cycle (Total)
system.switch_cpus.fetch.rateDist::3           217119      1.27%     83.57% # Number of instructions fetched each cycle (Total)
system.switch_cpus.fetch.rateDist::4           328183      1.91%     85.49% # Number of instructions fetched each cycle (Total)
system.switch_cpus.fetch.rateDist::5           277887      1.62%     87.11% # Number of instructions fetched each cycle (Total)
system.switch_cpus.fetch.rateDist::6           430233      2.51%     89.62% # Number of instructions fetched each cycle (Total)
system.switch_cpus.fetch.rateDist::7           101550      0.59%     90.21% # Number of instructions fetched each cycle (Total)
system.switch_cpus.fetch.rateDist::8          1679266      9.79%    100.00% # Number of instructions fetched each cycle (Total)
system.switch_cpus.fetch.rateDist::overflows            0      0.00%    100.00% # Number of instructions fetched each cycle (Total)
system.switch_cpus.fetch.rateDist::min_value            0                       # Number of instructions fetched each cycle (Total)
system.switch_cpus.fetch.rateDist::max_value            8                       # Number of instructions fetched each cycle (Total)
system.switch_cpus.fetch.rateDist::total     17149650                       # Number of instructions fetched each cycle (Total)
system.switch_cpus.fp_regfile_reads          16020613                       # number of floating regfile reads
system.switch_cpus.fp_regfile_writes          9302431                       # number of floating regfile writes
system.switch_cpus.idleCycles                   28632                       # Total number of cycles that the CPU has spent unscheduled due to idling
system.switch_cpus.iew.branchMispredicts        67478                       # Number of branch mispredicts detected at execute
system.switch_cpus.iew.exec_branches          1088307                       # Number of branches executed
system.switch_cpus.iew.exec_nop                     0                       # number of nop insts executed
system.switch_cpus.iew.exec_rate             1.055341                       # Inst execution rate
system.switch_cpus.iew.exec_refs              3331440                       # number of memory reference insts executed
system.switch_cpus.iew.exec_stores             289395                       # Number of stores executed
system.switch_cpus.iew.exec_swp                     0                       # number of swp insts executed
system.switch_cpus.iew.iewBlockCycles         7361373                       # Number of cycles IEW is blocking
system.switch_cpus.iew.iewDispLoadInsts       3070526                       # Number of dispatched load instructions
system.switch_cpus.iew.iewDispNonSpecInsts            0                       # Number of dispatched non-speculative instructions
system.switch_cpus.iew.iewDispSquashedInsts         5020                       # Number of squashed instructions skipped by dispatch
system.switch_cpus.iew.iewDispStoreInsts       325240                       # Number of dispatched store instructions
system.switch_cpus.iew.iewDispatchedInsts     18893229                       # Number of instructions dispatched to IQ
system.switch_cpus.iew.iewExecLoadInsts       3042045                       # Number of load instructions executed
system.switch_cpus.iew.iewExecSquashedInsts       109778                       # Number of squashed instructions skipped in execute
system.switch_cpus.iew.iewExecutedInsts      18128941                       # Number of executed instructions
system.switch_cpus.iew.iewIQFullEvents          78740                       # Number of times the IQ has become full, causing a stall
system.switch_cpus.iew.iewIdleCycles                0                       # Number of cycles IEW is idle
system.switch_cpus.iew.iewLSQFullEvents        708226                       # Number of times the LSQ has become full, causing a stall
system.switch_cpus.iew.iewSquashCycles          60651                       # Number of cycles IEW is squashing
system.switch_cpus.iew.iewUnblockCycles        835353                       # Number of cycles IEW is unblocking
system.switch_cpus.iew.lsq.thread0.blockedLoads            0                       # Number of blocked loads due to partial load-store forwarding
system.switch_cpus.iew.lsq.thread0.cacheBlocked        20460                       # Number of times an access to memory failed due to the cache being blocked
system.switch_cpus.iew.lsq.thread0.forwLoads        38735                       # Number of loads that had data forwarded from stores
system.switch_cpus.iew.lsq.thread0.ignoredResponses          239                       # Number of memory responses ignored because the instruction is squashed
system.switch_cpus.iew.lsq.thread0.invAddrLoads            0                       # Number of loads ignored due to an invalid address
system.switch_cpus.iew.lsq.thread0.invAddrSwpfs            0                       # Number of software prefetches ignored due to an invalid address
system.switch_cpus.iew.lsq.thread0.memOrderViolation          206                       # Number of memory ordering violations
system.switch_cpus.iew.lsq.thread0.rescheduledLoads           32                       # Number of loads that were rescheduled
system.switch_cpus.iew.lsq.thread0.squashedLoads       419414                       # Number of loads squashed
system.switch_cpus.iew.lsq.thread0.squashedStores        66718                       # Number of stores squashed
system.switch_cpus.iew.memOrderViolationEvents          206                       # Number of memory order violations
system.switch_cpus.iew.predictedNotTakenIncorrect        19752                       # Number of branches that were predicted not taken incorrectly
system.switch_cpus.iew.predictedTakenIncorrect        47726                       # Number of branches that were predicted taken incorrectly
system.switch_cpus.iew.wb_consumers          23659872                       # num instructions consuming a value
system.switch_cpus.iew.wb_count              17906663                       # cumulative count of insts written-back
system.switch_cpus.iew.wb_fanout             0.589529                       # average fanout of values written-back
system.switch_cpus.iew.wb_producers          13948178                       # num instructions producing a value
system.switch_cpus.iew.wb_rate               1.042401                       # insts written-back per cycle
system.switch_cpus.iew.wb_sent               17932201                       # cumulative count of insts sent to commit
system.switch_cpus.int_regfile_reads         15399931                       # number of integer regfile reads
system.switch_cpus.int_regfile_writes         7195424                       # number of integer regfile writes
system.switch_cpus.ipc                       0.582131                       # IPC: Instructions Per Cycle
system.switch_cpus.ipc_total                 0.582131                       # IPC: Total IPC of All Threads
system.switch_cpus.iq.FU_type_0::No_OpClass        35445      0.19%      0.19% # Type of FU issued
system.switch_cpus.iq.FU_type_0::IntAlu       7999760     43.86%     44.06% # Type of FU issued
system.switch_cpus.iq.FU_type_0::IntMult           25      0.00%     44.06% # Type of FU issued
system.switch_cpus.iq.FU_type_0::IntDiv            83      0.00%     44.06% # Type of FU issued
system.switch_cpus.iq.FU_type_0::FloatAdd       898799      4.93%     48.98% # Type of FU issued
system.switch_cpus.iq.FU_type_0::FloatCmp            0      0.00%     48.98% # Type of FU issued
system.switch_cpus.iq.FU_type_0::FloatCvt            0      0.00%     48.98% # Type of FU issued
system.switch_cpus.iq.FU_type_0::FloatMult            0      0.00%     48.98% # Type of FU issued
system.switch_cpus.iq.FU_type_0::FloatMultAcc            0      0.00%     48.98% # Type of FU issued
system.switch_cpus.iq.FU_type_0::FloatDiv            0      0.00%     48.98% # Type of FU issued
system.switch_cpus.iq.FU_type_0::FloatMisc            0      0.00%     48.98% # Type of FU issued
system.switch_cpus.iq.FU_type_0::FloatSqrt            0      0.00%     48.98% # Type of FU issued
system.switch_cpus.iq.FU_type_0::SimdAdd            0      0.00%     48.98% # Type of FU issued
system.switch_cpus.iq.FU_type_0::SimdAddAcc            0      0.00%     48.98% # Type of FU issued
system.switch_cpus.iq.FU_type_0::SimdAlu      1536973      8.43%     57.41% # Type of FU issued
system.switch_cpus.iq.FU_type_0::SimdCmp            0      0.00%     57.41% # Type of FU issued
system.switch_cpus.iq.FU_type_0::SimdCvt           14      0.00%     57.41% # Type of FU issued
system.switch_cpus.iq.FU_type_0::SimdMisc        41285      0.23%     57.64% # Type of FU issued
system.switch_cpus.iq.FU_type_0::SimdMult            0      0.00%     57.64% # Type of FU issued
system.switch_cpus.iq.FU_type_0::SimdMultAcc            0      0.00%     57.64% # Type of FU issued
system.switch_cpus.iq.FU_type_0::SimdShift            0      0.00%     57.64% # Type of FU issued
system.switch_cpus.iq.FU_type_0::SimdShiftAcc            0      0.00%     57.64% # Type of FU issued
system.switch_cpus.iq.FU_type_0::SimdDiv            0      0.00%     57.64% # Type of FU issued
system.switch_cpus.iq.FU_type_0::SimdSqrt            0      0.00%     57.64% # Type of FU issued
system.switch_cpus.iq.FU_type_0::SimdFloatAdd      1395034      7.65%     65.29% # Type of FU issued
system.switch_cpus.iq.FU_type_0::SimdFloatAlu            0      0.00%     65.29% # Type of FU issued
system.switch_cpus.iq.FU_type_0::SimdFloatCmp        20126      0.11%     65.40% # Type of FU issued
system.switch_cpus.iq.FU_type_0::SimdFloatCvt      1498990      8.22%     73.62% # Type of FU issued
system.switch_cpus.iq.FU_type_0::SimdFloatDiv            0      0.00%     73.62% # Type of FU issued
system.switch_cpus.iq.FU_type_0::SimdFloatMisc            0      0.00%     73.62% # Type of FU issued
system.switch_cpus.iq.FU_type_0::SimdFloatMult      1436166      7.87%     81.49% # Type of FU issued
system.switch_cpus.iq.FU_type_0::SimdFloatMultAcc            0      0.00%     81.49% # Type of FU issued
system.switch_cpus.iq.FU_type_0::SimdFloatSqrt            0      0.00%     81.49% # Type of FU issued
system.switch_cpus.iq.FU_type_0::SimdReduceAdd            0      0.00%     81.49% # Type of FU issued
system.switch_cpus.iq.FU_type_0::SimdReduceAlu            0      0.00%     81.49% # Type of FU issued
system.switch_cpus.iq.FU_type_0::SimdReduceCmp            0      0.00%     81.49% # Type of FU issued
system.switch_cpus.iq.FU_type_0::SimdFloatReduceAdd            0      0.00%     81.49% # Type of FU issued
system.switch_cpus.iq.FU_type_0::SimdFloatReduceCmp            0      0.00%     81.49% # Type of FU issued
system.switch_cpus.iq.FU_type_0::SimdAes            0      0.00%     81.49% # Type of FU issued
system.switch_cpus.iq.FU_type_0::SimdAesMix            0      0.00%     81.49% # Type of FU issued
system.switch_cpus.iq.FU_type_0::SimdSha1Hash            0      0.00%     81.49% # Type of FU issued
system.switch_cpus.iq.FU_type_0::SimdSha1Hash2            0      0.00%     81.49% # Type of FU issued
system.switch_cpus.iq.FU_type_0::SimdSha256Hash            0      0.00%     81.49% # Type of FU issued
system.switch_cpus.iq.FU_type_0::SimdSha256Hash2            0      0.00%     81.49% # Type of FU issued
system.switch_cpus.iq.FU_type_0::SimdShaSigma2            0      0.00%     81.49% # Type of FU issued
system.switch_cpus.iq.FU_type_0::SimdShaSigma3            0      0.00%     81.49% # Type of FU issued
system.switch_cpus.iq.FU_type_0::SimdPredAlu            0      0.00%     81.49% # Type of FU issued
system.switch_cpus.iq.FU_type_0::MemRead      1071249      5.87%     87.36% # Type of FU issued
system.switch_cpus.iq.FU_type_0::MemWrite       229423      1.26%     88.62% # Type of FU issued
system.switch_cpus.iq.FU_type_0::FloatMemRead      2011305     11.03%     99.65% # Type of FU issued
system.switch_cpus.iq.FU_type_0::FloatMemWrite        64049      0.35%    100.00% # Type of FU issued
system.switch_cpus.iq.FU_type_0::IprAccess            0      0.00%    100.00% # Type of FU issued
system.switch_cpus.iq.FU_type_0::InstPrefetch            0      0.00%    100.00% # Type of FU issued
system.switch_cpus.iq.FU_type_0::total       18238726                       # Type of FU issued
system.switch_cpus.iq.fp_alu_accesses         9747229                       # Number of floating point alu accesses
system.switch_cpus.iq.fp_inst_queue_reads     19313079                       # Number of floating instruction queue reads
system.switch_cpus.iq.fp_inst_queue_wakeup_accesses      9414840                       # Number of floating instruction queue wakeup accesses
system.switch_cpus.iq.fp_inst_queue_writes     10137218                       # Number of floating instruction queue writes
system.switch_cpus.iq.fu_busy_cnt              317698                       # FU busy when requested
system.switch_cpus.iq.fu_busy_rate           0.017419                       # FU busy rate (busy events/executed inst)
system.switch_cpus.iq.fu_full::No_OpClass            0      0.00%      0.00% # attempts to use FU when none available
system.switch_cpus.iq.fu_full::IntAlu          109770     34.55%     34.55% # attempts to use FU when none available
system.switch_cpus.iq.fu_full::IntMult              0      0.00%     34.55% # attempts to use FU when none available
system.switch_cpus.iq.fu_full::IntDiv               0      0.00%     34.55% # attempts to use FU when none available
system.switch_cpus.iq.fu_full::FloatAdd             0      0.00%     34.55% # attempts to use FU when none available
system.switch_cpus.iq.fu_full::FloatCmp             0      0.00%     34.55% # attempts to use FU when none available
system.switch_cpus.iq.fu_full::FloatCvt             0      0.00%     34.55% # attempts to use FU when none available
system.switch_cpus.iq.fu_full::FloatMult            0      0.00%     34.55% # attempts to use FU when none available
system.switch_cpus.iq.fu_full::FloatMultAcc            0      0.00%     34.55% # attempts to use FU when none available
system.switch_cpus.iq.fu_full::FloatDiv             0      0.00%     34.55% # attempts to use FU when none available
system.switch_cpus.iq.fu_full::FloatMisc            0      0.00%     34.55% # attempts to use FU when none available
system.switch_cpus.iq.fu_full::FloatSqrt            0      0.00%     34.55% # attempts to use FU when none available
system.switch_cpus.iq.fu_full::SimdAdd              0      0.00%     34.55% # attempts to use FU when none available
system.switch_cpus.iq.fu_full::SimdAddAcc            0      0.00%     34.55% # attempts to use FU when none available
system.switch_cpus.iq.fu_full::SimdAlu          52166     16.42%     50.97% # attempts to use FU when none available
system.switch_cpus.iq.fu_full::SimdCmp              0      0.00%     50.97% # attempts to use FU when none available
system.switch_cpus.iq.fu_full::SimdCvt              0      0.00%     50.97% # attempts to use FU when none available
system.switch_cpus.iq.fu_full::SimdMisc             0      0.00%     50.97% # attempts to use FU when none available
system.switch_cpus.iq.fu_full::SimdMult             0      0.00%     50.97% # attempts to use FU when none available
system.switch_cpus.iq.fu_full::SimdMultAcc            0      0.00%     50.97% # attempts to use FU when none available
system.switch_cpus.iq.fu_full::SimdShift            0      0.00%     50.97% # attempts to use FU when none available
system.switch_cpus.iq.fu_full::SimdShiftAcc            0      0.00%     50.97% # attempts to use FU when none available
system.switch_cpus.iq.fu_full::SimdDiv              0      0.00%     50.97% # attempts to use FU when none available
system.switch_cpus.iq.fu_full::SimdSqrt             0      0.00%     50.97% # attempts to use FU when none available
system.switch_cpus.iq.fu_full::SimdFloatAdd        71373     22.47%     73.44% # attempts to use FU when none available
system.switch_cpus.iq.fu_full::SimdFloatAlu            0      0.00%     73.44% # attempts to use FU when none available
system.switch_cpus.iq.fu_full::SimdFloatCmp            0      0.00%     73.44% # attempts to use FU when none available
system.switch_cpus.iq.fu_full::SimdFloatCvt        19412      6.11%     79.55% # attempts to use FU when none available
system.switch_cpus.iq.fu_full::SimdFloatDiv            0      0.00%     79.55% # attempts to use FU when none available
system.switch_cpus.iq.fu_full::SimdFloatMisc            0      0.00%     79.55% # attempts to use FU when none available
system.switch_cpus.iq.fu_full::SimdFloatMult         4026      1.27%     80.81% # attempts to use FU when none available
system.switch_cpus.iq.fu_full::SimdFloatMultAcc            0      0.00%     80.81% # attempts to use FU when none available
system.switch_cpus.iq.fu_full::SimdFloatSqrt            0      0.00%     80.81% # attempts to use FU when none available
system.switch_cpus.iq.fu_full::SimdReduceAdd            0      0.00%     80.81% # attempts to use FU when none available
system.switch_cpus.iq.fu_full::SimdReduceAlu            0      0.00%     80.81% # attempts to use FU when none available
system.switch_cpus.iq.fu_full::SimdReduceCmp            0      0.00%     80.81% # attempts to use FU when none available
system.switch_cpus.iq.fu_full::SimdFloatReduceAdd            0      0.00%     80.81% # attempts to use FU when none available
system.switch_cpus.iq.fu_full::SimdFloatReduceCmp            0      0.00%     80.81% # attempts to use FU when none available
system.switch_cpus.iq.fu_full::SimdAes              0      0.00%     80.81% # attempts to use FU when none available
system.switch_cpus.iq.fu_full::SimdAesMix            0      0.00%     80.81% # attempts to use FU when none available
system.switch_cpus.iq.fu_full::SimdSha1Hash            0      0.00%     80.81% # attempts to use FU when none available
system.switch_cpus.iq.fu_full::SimdSha1Hash2            0      0.00%     80.81% # attempts to use FU when none available
system.switch_cpus.iq.fu_full::SimdSha256Hash            0      0.00%     80.81% # attempts to use FU when none available
system.switch_cpus.iq.fu_full::SimdSha256Hash2            0      0.00%     80.81% # attempts to use FU when none available
system.switch_cpus.iq.fu_full::SimdShaSigma2            0      0.00%     80.81% # attempts to use FU when none available
system.switch_cpus.iq.fu_full::SimdShaSigma3            0      0.00%     80.81% # attempts to use FU when none available
system.switch_cpus.iq.fu_full::SimdPredAlu            0      0.00%     80.81% # attempts to use FU when none available
system.switch_cpus.iq.fu_full::MemRead          19963      6.28%     87.10% # attempts to use FU when none available
system.switch_cpus.iq.fu_full::MemWrite          4685      1.47%     88.57% # attempts to use FU when none available
system.switch_cpus.iq.fu_full::FloatMemRead        36255     11.41%     99.98% # attempts to use FU when none available
system.switch_cpus.iq.fu_full::FloatMemWrite           48      0.02%    100.00% # attempts to use FU when none available
system.switch_cpus.iq.fu_full::IprAccess            0      0.00%    100.00% # attempts to use FU when none available
system.switch_cpus.iq.fu_full::InstPrefetch            0      0.00%    100.00% # attempts to use FU when none available
system.switch_cpus.iq.int_alu_accesses        8773750                       # Number of integer alu accesses
system.switch_cpus.iq.int_inst_queue_reads     34665002                       # Number of integer instruction queue reads
system.switch_cpus.iq.int_inst_queue_wakeup_accesses      8491823                       # Number of integer instruction queue wakeup accesses
system.switch_cpus.iq.int_inst_queue_writes     10949680                       # Number of integer instruction queue writes
system.switch_cpus.iq.iqInstsAdded           18893229                       # Number of instructions added to the IQ (excludes non-spec)
system.switch_cpus.iq.iqInstsIssued          18238726                       # Number of instructions issued
system.switch_cpus.iq.iqSquashedInstsExamined      2193465                       # Number of squashed instructions iterated over during squash; mainly for profiling
system.switch_cpus.iq.iqSquashedInstsIssued        33288                       # Number of squashed instructions issued
system.switch_cpus.iq.iqSquashedOperandsExamined      3284078                       # Number of squashed operands that are examined and possibly removed from graph
system.switch_cpus.iq.issued_per_cycle::samples     17149650                       # Number of insts issued each cycle
system.switch_cpus.iq.issued_per_cycle::mean     1.063504                       # Number of insts issued each cycle
system.switch_cpus.iq.issued_per_cycle::stdev     1.914483                       # Number of insts issued each cycle
system.switch_cpus.iq.issued_per_cycle::underflows            0      0.00%      0.00% # Number of insts issued each cycle
system.switch_cpus.iq.issued_per_cycle::0     11550158     67.35%     67.35% # Number of insts issued each cycle
system.switch_cpus.iq.issued_per_cycle::1      1416089      8.26%     75.61% # Number of insts issued each cycle
system.switch_cpus.iq.issued_per_cycle::2      1061251      6.19%     81.79% # Number of insts issued each cycle
system.switch_cpus.iq.issued_per_cycle::3       888269      5.18%     86.97% # Number of insts issued each cycle
system.switch_cpus.iq.issued_per_cycle::4       755058      4.40%     91.38% # Number of insts issued each cycle
system.switch_cpus.iq.issued_per_cycle::5       532784      3.11%     94.48% # Number of insts issued each cycle
system.switch_cpus.iq.issued_per_cycle::6       454625      2.65%     97.13% # Number of insts issued each cycle
system.switch_cpus.iq.issued_per_cycle::7       307902      1.80%     98.93% # Number of insts issued each cycle
system.switch_cpus.iq.issued_per_cycle::8       183514      1.07%    100.00% # Number of insts issued each cycle
system.switch_cpus.iq.issued_per_cycle::overflows            0      0.00%    100.00% # Number of insts issued each cycle
system.switch_cpus.iq.issued_per_cycle::min_value            0                       # Number of insts issued each cycle
system.switch_cpus.iq.issued_per_cycle::max_value            8                       # Number of insts issued each cycle
system.switch_cpus.iq.issued_per_cycle::total     17149650                       # Number of insts issued each cycle
system.switch_cpus.iq.rate                   1.061732                       # Inst issue rate
system.switch_cpus.iq.vec_alu_accesses              0                       # Number of vector alu accesses
system.switch_cpus.iq.vec_inst_queue_reads            0                       # Number of vector instruction queue reads
system.switch_cpus.iq.vec_inst_queue_wakeup_accesses            0                       # Number of vector instruction queue wakeup accesses
system.switch_cpus.iq.vec_inst_queue_writes            0                       # Number of vector instruction queue writes
system.switch_cpus.itb.rdAccesses                   0                       # TLB accesses on read requests
system.switch_cpus.itb.rdMisses                     0                       # TLB misses on read requests
system.switch_cpus.itb.wrAccesses             1491413                       # TLB accesses on write requests
system.switch_cpus.itb.wrMisses                   265                       # TLB misses on write requests
system.switch_cpus.memDep0.conflictingLoads        44374                       # Number of conflicting loads.
system.switch_cpus.memDep0.conflictingStores        16862                       # Number of conflicting stores.
system.switch_cpus.memDep0.insertedLoads      3070526                       # Number of loads inserted to the mem dependence unit.
system.switch_cpus.memDep0.insertedStores       325240                       # Number of stores inserted to the mem dependence unit.
system.switch_cpus.misc_regfile_reads         5596533                       # number of misc regfile reads
system.switch_cpus.misc_regfile_writes              1                       # number of misc regfile writes
system.switch_cpus.numCycles                 17178282                       # number of cpu cycles simulated
system.switch_cpus.numWorkItemsCompleted            0                       # number of work items this cpu completed
system.switch_cpus.numWorkItemsStarted              0                       # number of work items this cpu started
system.switch_cpus.rename.BlockCycles        10545091                       # Number of cycles rename is blocking
system.switch_cpus.rename.CommittedMaps      19126939                       # Number of HB maps that are committed
system.switch_cpus.rename.IQFullEvents        1512867                       # Number of times rename has blocked due to IQ full
system.switch_cpus.rename.IdleCycles          1366736                       # Number of cycles rename is idle
system.switch_cpus.rename.LQFullEvents         370003                       # Number of times rename has blocked due to LQ full
system.switch_cpus.rename.ROBFullEvents        126813                       # Number of times rename has blocked due to ROB full
system.switch_cpus.rename.RenameLookups      46960205                       # Number of register rename lookups that rename has made
system.switch_cpus.rename.RenamedInsts       19342537                       # Number of instructions processed by rename
system.switch_cpus.rename.RenamedOperands     22287728                       # Number of destination operands rename has renamed
system.switch_cpus.rename.RunCycles           2358499                       # Number of cycles rename is running
system.switch_cpus.rename.SQFullEvents         658658                       # Number of times rename has blocked due to SQ full
system.switch_cpus.rename.SquashCycles          60651                       # Number of cycles rename is squashing
system.switch_cpus.rename.UnblockCycles       2818672                       # Number of cycles rename is unblocking
system.switch_cpus.rename.UndoneMaps          3160625                       # Number of HB maps that are undone due to squashing
system.switch_cpus.rename.fp_rename_lookups     16835812                       # Number of floating rename lookups
system.switch_cpus.rename.int_rename_lookups     17019903                       # Number of integer rename lookups
system.switch_cpus.rename.serializeStallCycles            0                       # count of cycles rename stalled for serializing inst
system.switch_cpus.rename.serializingInsts            0                       # count of serializing insts renamed
system.switch_cpus.rename.skidInsts           4558492                       # count of insts added to the skid buffer
system.switch_cpus.rename.tempSerializingInsts            0                       # count of temporary serializing insts renamed
system.switch_cpus.rob.rob_reads             34360625                       # The number of ROB reads
system.switch_cpus.rob.rob_writes            38101243                       # The number of ROB writes
system.switch_cpus.timesIdled                     359                       # Number of times that the entire CPU went into an idle state and unscheduled itself
system.tol2bus.snoop_filter.hit_multi_requests            0                       # Number of requests hitting in the snoop filter with multiple (>1) holders of the requested data.
system.tol2bus.snoop_filter.hit_multi_snoops            0                       # Number of snoops hitting in the snoop filter with multiple (>1) holders of the requested data.
system.tol2bus.snoop_filter.hit_single_requests       183523                       # Number of requests hitting in the snoop filter with a single holder of the requested data.
system.tol2bus.snoop_filter.hit_single_snoops        37617                       # Number of snoops hitting in the snoop filter with a single holder of the requested data.
system.tol2bus.snoop_filter.tot_requests       368358                       # Total number of requests made to the snoop filter.
system.tol2bus.snoop_filter.tot_snoops          37617                       # Total number of snoops made to the snoop filter.
system.membus.pwrStateResidencyTicks::UNDEFINED 270775869205000                       # Cumulative time (in ticks) in various power states
system.membus.trans_dist::ReadResp             142241                       # Transaction distribution
system.membus.trans_dist::WritebackDirty        13050                       # Transaction distribution
system.membus.trans_dist::CleanEvict           131352                       # Transaction distribution
system.membus.trans_dist::ReadExReq             10852                       # Transaction distribution
system.membus.trans_dist::ReadExResp            10852                       # Transaction distribution
system.membus.trans_dist::ReadSharedReq        142241                       # Transaction distribution
system.membus.pkt_count_system.l2.mem_side::system.mem_ctrls.port       450588                       # Packet count per connected master and slave (bytes)
system.membus.pkt_count_system.l2.mem_side::total       450588                       # Packet count per connected master and slave (bytes)
system.membus.pkt_count::total                 450588                       # Packet count per connected master and slave (bytes)
system.membus.pkt_size_system.l2.mem_side::system.mem_ctrls.port     10633152                       # Cumulative packet size per connected master and slave (bytes)
system.membus.pkt_size_system.l2.mem_side::total     10633152                       # Cumulative packet size per connected master and slave (bytes)
system.membus.pkt_size::total                10633152                       # Cumulative packet size per connected master and slave (bytes)
system.membus.snoops                                0                       # Total snoops (count)
system.membus.snoopTraffic                          0                       # Total snoop traffic (bytes)
system.membus.snoop_fanout::samples            153093                       # Request fanout histogram
system.membus.snoop_fanout::mean                    0                       # Request fanout histogram
system.membus.snoop_fanout::stdev                   0                       # Request fanout histogram
system.membus.snoop_fanout::underflows              0      0.00%      0.00% # Request fanout histogram
system.membus.snoop_fanout::0                  153093    100.00%    100.00% # Request fanout histogram
system.membus.snoop_fanout::1                       0      0.00%    100.00% # Request fanout histogram
system.membus.snoop_fanout::overflows               0      0.00%    100.00% # Request fanout histogram
system.membus.snoop_fanout::min_value               0                       # Request fanout histogram
system.membus.snoop_fanout::max_value               0                       # Request fanout histogram
system.membus.snoop_fanout::total              153093                       # Request fanout histogram
system.membus.reqLayer2.occupancy           381102000                       # Layer occupancy (ticks)
system.membus.reqLayer2.utilization               4.4                       # Layer utilization (%)
system.membus.respLayer1.occupancy          817751000                       # Layer occupancy (ticks)
system.membus.respLayer1.utilization              9.5                       # Layer utilization (%)
system.switch_cpus.pwrStateResidencyTicks::OFF   8589151250                       # Cumulative time (in ticks) in various power states
system.switch_cpus.dtb.walker.pwrStateResidencyTicks::UNDEFINED 270775869205000                       # Cumulative time (in ticks) in various power states
system.switch_cpus.itb.walker.pwrStateResidencyTicks::UNDEFINED 270775869205000                       # Cumulative time (in ticks) in various power states
system.tol2bus.pwrStateResidencyTicks::UNDEFINED 270775869205000                       # Cumulative time (in ticks) in various power states
system.tol2bus.trans_dist::ReadResp            172491                       # Transaction distribution
system.tol2bus.trans_dist::WritebackDirty        47463                       # Transaction distribution
system.tol2bus.trans_dist::WritebackClean          170                       # Transaction distribution
system.tol2bus.trans_dist::CleanEvict          282591                       # Transaction distribution
system.tol2bus.trans_dist::ReadExReq            12344                       # Transaction distribution
system.tol2bus.trans_dist::ReadExResp           12344                       # Transaction distribution
system.tol2bus.trans_dist::ReadCleanReq           458                       # Transaction distribution
system.tol2bus.trans_dist::ReadSharedReq       172033                       # Transaction distribution
system.tol2bus.pkt_count_system.cpu.icache.mem_side::system.l2.cpu_side         1086                       # Packet count per connected master and slave (bytes)
system.tol2bus.pkt_count_system.cpu.dcache.mem_side::system.l2.cpu_side       552107                       # Packet count per connected master and slave (bytes)
system.tol2bus.pkt_count::total                553193                       # Packet count per connected master and slave (bytes)
system.tol2bus.pkt_size_system.cpu.icache.mem_side::system.l2.cpu_side        40192                       # Cumulative packet size per connected master and slave (bytes)
system.tol2bus.pkt_size_system.cpu.dcache.mem_side::system.l2.cpu_side     14002560                       # Cumulative packet size per connected master and slave (bytes)
system.tol2bus.pkt_size::total               14042752                       # Cumulative packet size per connected master and slave (bytes)
system.tol2bus.snoops                          146701                       # Total snoops (count)
system.tol2bus.snoopTraffic                    835200                       # Total snoop traffic (bytes)
system.tol2bus.snoop_fanout::samples           331536                       # Request fanout histogram
system.tol2bus.snoop_fanout::mean            0.113463                       # Request fanout histogram
system.tol2bus.snoop_fanout::stdev           0.317158                       # Request fanout histogram
system.tol2bus.snoop_fanout::underflows             0      0.00%      0.00% # Request fanout histogram
system.tol2bus.snoop_fanout::0                 293919     88.65%     88.65% # Request fanout histogram
system.tol2bus.snoop_fanout::1                  37617     11.35%    100.00% # Request fanout histogram
system.tol2bus.snoop_fanout::2                      0      0.00%    100.00% # Request fanout histogram
system.tol2bus.snoop_fanout::3                      0      0.00%    100.00% # Request fanout histogram
system.tol2bus.snoop_fanout::4                      0      0.00%    100.00% # Request fanout histogram
system.tol2bus.snoop_fanout::overflows              0      0.00%    100.00% # Request fanout histogram
system.tol2bus.snoop_fanout::min_value              0                       # Request fanout histogram
system.tol2bus.snoop_fanout::max_value              1                       # Request fanout histogram
system.tol2bus.snoop_fanout::total             331536                       # Request fanout histogram
system.tol2bus.reqLayer0.occupancy          218759500                       # Layer occupancy (ticks)
system.tol2bus.reqLayer0.utilization              2.5                       # Layer utilization (%)
system.tol2bus.respLayer1.occupancy         276561000                       # Layer occupancy (ticks)
system.tol2bus.respLayer1.utilization             3.2                       # Layer utilization (%)
system.tol2bus.respLayer0.occupancy            684499                       # Layer occupancy (ticks)
system.tol2bus.respLayer0.utilization             0.0                       # Layer utilization (%)
system.voltage_domain.voltage                       1                       # Voltage in Volts
system.clk_domain.clock                          1000                       # Clock period in ticks
system.l2.pwrStateResidencyTicks::UNDEFINED 270775869205000                       # Cumulative time (in ticks) in various power states
system.l2.demand_hits::.switch_cpus.inst           20                       # number of demand (read+write) hits
system.l2.demand_hits::.switch_cpus.data        31722                       # number of demand (read+write) hits
system.l2.demand_hits::total                    31742                       # number of demand (read+write) hits
system.l2.overall_hits::.switch_cpus.inst           20                       # number of overall hits
system.l2.overall_hits::.switch_cpus.data        31722                       # number of overall hits
system.l2.overall_hits::total                   31742                       # number of overall hits
system.l2.demand_misses::.cpu.inst                  2                       # number of demand (read+write) misses
system.l2.demand_misses::.cpu.data                  3                       # number of demand (read+write) misses
system.l2.demand_misses::.switch_cpus.inst          436                       # number of demand (read+write) misses
system.l2.demand_misses::.switch_cpus.data       152652                       # number of demand (read+write) misses
system.l2.demand_misses::total                 153093                       # number of demand (read+write) misses
system.l2.overall_misses::.cpu.inst                 2                       # number of overall misses
system.l2.overall_misses::.cpu.data                 3                       # number of overall misses
system.l2.overall_misses::.switch_cpus.inst          436                       # number of overall misses
system.l2.overall_misses::.switch_cpus.data       152652                       # number of overall misses
system.l2.overall_misses::total                153093                       # number of overall misses
system.l2.demand_miss_latency::.switch_cpus.inst     39015000                       # number of demand (read+write) miss cycles
system.l2.demand_miss_latency::.switch_cpus.data  12458172500                       # number of demand (read+write) miss cycles
system.l2.demand_miss_latency::total      12497187500                       # number of demand (read+write) miss cycles
system.l2.overall_miss_latency::.switch_cpus.inst     39015000                       # number of overall miss cycles
system.l2.overall_miss_latency::.switch_cpus.data  12458172500                       # number of overall miss cycles
system.l2.overall_miss_latency::total     12497187500                       # number of overall miss cycles
system.l2.demand_accesses::.cpu.inst                2                       # number of demand (read+write) accesses
system.l2.demand_accesses::.cpu.data                3                       # number of demand (read+write) accesses
system.l2.demand_accesses::.switch_cpus.inst          456                       # number of demand (read+write) accesses
system.l2.demand_accesses::.switch_cpus.data       184374                       # number of demand (read+write) accesses
system.l2.demand_accesses::total               184835                       # number of demand (read+write) accesses
system.l2.overall_accesses::.cpu.inst               2                       # number of overall (read+write) accesses
system.l2.overall_accesses::.cpu.data               3                       # number of overall (read+write) accesses
system.l2.overall_accesses::.switch_cpus.inst          456                       # number of overall (read+write) accesses
system.l2.overall_accesses::.switch_cpus.data       184374                       # number of overall (read+write) accesses
system.l2.overall_accesses::total              184835                       # number of overall (read+write) accesses
system.l2.demand_miss_rate::.cpu.inst               1                       # miss rate for demand accesses
system.l2.demand_miss_rate::.cpu.data               1                       # miss rate for demand accesses
system.l2.demand_miss_rate::.switch_cpus.inst     0.956140                       # miss rate for demand accesses
system.l2.demand_miss_rate::.switch_cpus.data     0.827948                       # miss rate for demand accesses
system.l2.demand_miss_rate::total            0.828268                       # miss rate for demand accesses
system.l2.overall_miss_rate::.cpu.inst              1                       # miss rate for overall accesses
system.l2.overall_miss_rate::.cpu.data              1                       # miss rate for overall accesses
system.l2.overall_miss_rate::.switch_cpus.inst     0.956140                       # miss rate for overall accesses
system.l2.overall_miss_rate::.switch_cpus.data     0.827948                       # miss rate for overall accesses
system.l2.overall_miss_rate::total           0.828268                       # miss rate for overall accesses
system.l2.demand_avg_miss_latency::.switch_cpus.inst 89483.944954                       # average overall miss latency
system.l2.demand_avg_miss_latency::.switch_cpus.data 81611.590415                       # average overall miss latency
system.l2.demand_avg_miss_latency::total 81631.344999                       # average overall miss latency
system.l2.overall_avg_miss_latency::.switch_cpus.inst 89483.944954                       # average overall miss latency
system.l2.overall_avg_miss_latency::.switch_cpus.data 81611.590415                       # average overall miss latency
system.l2.overall_avg_miss_latency::total 81631.344999                       # average overall miss latency
system.l2.blocked_cycles::no_mshrs                  0                       # number of cycles access was blocked
system.l2.blocked_cycles::no_targets                0                       # number of cycles access was blocked
system.l2.blocked::no_mshrs                         0                       # number of cycles access was blocked
system.l2.blocked::no_targets                       0                       # number of cycles access was blocked
system.l2.avg_blocked_cycles::no_mshrs            nan                       # average number of cycles each access was blocked
system.l2.avg_blocked_cycles::no_targets          nan                       # average number of cycles each access was blocked
system.l2.writebacks::.writebacks               13050                       # number of writebacks
system.l2.writebacks::total                     13050                       # number of writebacks
system.l2.demand_mshr_misses::.switch_cpus.inst          436                       # number of demand (read+write) MSHR misses
system.l2.demand_mshr_misses::.switch_cpus.data       152652                       # number of demand (read+write) MSHR misses
system.l2.demand_mshr_misses::total            153088                       # number of demand (read+write) MSHR misses
system.l2.overall_mshr_misses::.switch_cpus.inst          436                       # number of overall MSHR misses
system.l2.overall_mshr_misses::.switch_cpus.data       152652                       # number of overall MSHR misses
system.l2.overall_mshr_misses::total           153088                       # number of overall MSHR misses
system.l2.demand_mshr_miss_latency::.switch_cpus.inst     34655000                       # number of demand (read+write) MSHR miss cycles
system.l2.demand_mshr_miss_latency::.switch_cpus.data  10931652500                       # number of demand (read+write) MSHR miss cycles
system.l2.demand_mshr_miss_latency::total  10966307500                       # number of demand (read+write) MSHR miss cycles
system.l2.overall_mshr_miss_latency::.switch_cpus.inst     34655000                       # number of overall MSHR miss cycles
system.l2.overall_mshr_miss_latency::.switch_cpus.data  10931652500                       # number of overall MSHR miss cycles
system.l2.overall_mshr_miss_latency::total  10966307500                       # number of overall MSHR miss cycles
system.l2.demand_mshr_miss_rate::.switch_cpus.inst     0.956140                       # mshr miss rate for demand accesses
system.l2.demand_mshr_miss_rate::.switch_cpus.data     0.827948                       # mshr miss rate for demand accesses
system.l2.demand_mshr_miss_rate::total       0.828241                       # mshr miss rate for demand accesses
system.l2.overall_mshr_miss_rate::.switch_cpus.inst     0.956140                       # mshr miss rate for overall accesses
system.l2.overall_mshr_miss_rate::.switch_cpus.data     0.827948                       # mshr miss rate for overall accesses
system.l2.overall_mshr_miss_rate::total      0.828241                       # mshr miss rate for overall accesses
system.l2.demand_avg_mshr_miss_latency::.switch_cpus.inst 79483.944954                       # average overall mshr miss latency
system.l2.demand_avg_mshr_miss_latency::.switch_cpus.data 71611.590415                       # average overall mshr miss latency
system.l2.demand_avg_mshr_miss_latency::total 71634.011157                       # average overall mshr miss latency
system.l2.overall_avg_mshr_miss_latency::.switch_cpus.inst 79483.944954                       # average overall mshr miss latency
system.l2.overall_avg_mshr_miss_latency::.switch_cpus.data 71611.590415                       # average overall mshr miss latency
system.l2.overall_avg_mshr_miss_latency::total 71634.011157                       # average overall mshr miss latency
system.l2.replacements                         146701                       # number of replacements
system.l2.WritebackDirty_hits::.writebacks        34413                       # number of WritebackDirty hits
system.l2.WritebackDirty_hits::total            34413                       # number of WritebackDirty hits
system.l2.WritebackDirty_accesses::.writebacks        34413                       # number of WritebackDirty accesses(hits+misses)
system.l2.WritebackDirty_accesses::total        34413                       # number of WritebackDirty accesses(hits+misses)
system.l2.WritebackClean_hits::.writebacks          170                       # number of WritebackClean hits
system.l2.WritebackClean_hits::total              170                       # number of WritebackClean hits
system.l2.WritebackClean_accesses::.writebacks          170                       # number of WritebackClean accesses(hits+misses)
system.l2.WritebackClean_accesses::total          170                       # number of WritebackClean accesses(hits+misses)
system.l2.CleanEvict_mshr_misses::.writebacks        35318                       # number of CleanEvict MSHR misses
system.l2.CleanEvict_mshr_misses::total         35318                       # number of CleanEvict MSHR misses
system.l2.CleanEvict_mshr_miss_rate::.writebacks          inf                       # mshr miss rate for CleanEvict accesses
system.l2.CleanEvict_mshr_miss_rate::total          inf                       # mshr miss rate for CleanEvict accesses
system.l2.ReadExReq_hits::.switch_cpus.data         1492                       # number of ReadExReq hits
system.l2.ReadExReq_hits::total                  1492                       # number of ReadExReq hits
system.l2.ReadExReq_misses::.cpu.data               1                       # number of ReadExReq misses
system.l2.ReadExReq_misses::.switch_cpus.data        10851                       # number of ReadExReq misses
system.l2.ReadExReq_misses::total               10852                       # number of ReadExReq misses
system.l2.ReadExReq_miss_latency::.switch_cpus.data    865798500                       # number of ReadExReq miss cycles
system.l2.ReadExReq_miss_latency::total     865798500                       # number of ReadExReq miss cycles
system.l2.ReadExReq_accesses::.cpu.data             1                       # number of ReadExReq accesses(hits+misses)
system.l2.ReadExReq_accesses::.switch_cpus.data        12343                       # number of ReadExReq accesses(hits+misses)
system.l2.ReadExReq_accesses::total             12344                       # number of ReadExReq accesses(hits+misses)
system.l2.ReadExReq_miss_rate::.cpu.data            1                       # miss rate for ReadExReq accesses
system.l2.ReadExReq_miss_rate::.switch_cpus.data     0.879122                       # miss rate for ReadExReq accesses
system.l2.ReadExReq_miss_rate::total         0.879132                       # miss rate for ReadExReq accesses
system.l2.ReadExReq_avg_miss_latency::.switch_cpus.data 79789.742881                       # average ReadExReq miss latency
system.l2.ReadExReq_avg_miss_latency::total 79782.390343                       # average ReadExReq miss latency
system.l2.ReadExReq_mshr_misses::.switch_cpus.data        10851                       # number of ReadExReq MSHR misses
system.l2.ReadExReq_mshr_misses::total          10851                       # number of ReadExReq MSHR misses
system.l2.ReadExReq_mshr_miss_latency::.switch_cpus.data    757288500                       # number of ReadExReq MSHR miss cycles
system.l2.ReadExReq_mshr_miss_latency::total    757288500                       # number of ReadExReq MSHR miss cycles
system.l2.ReadExReq_mshr_miss_rate::.switch_cpus.data     0.879122                       # mshr miss rate for ReadExReq accesses
system.l2.ReadExReq_mshr_miss_rate::total     0.879051                       # mshr miss rate for ReadExReq accesses
system.l2.ReadExReq_avg_mshr_miss_latency::.switch_cpus.data 69789.742881                       # average ReadExReq mshr miss latency
system.l2.ReadExReq_avg_mshr_miss_latency::total 69789.742881                       # average ReadExReq mshr miss latency
system.l2.ReadCleanReq_hits::.switch_cpus.inst           20                       # number of ReadCleanReq hits
system.l2.ReadCleanReq_hits::total                 20                       # number of ReadCleanReq hits
system.l2.ReadCleanReq_misses::.cpu.inst            2                       # number of ReadCleanReq misses
system.l2.ReadCleanReq_misses::.switch_cpus.inst          436                       # number of ReadCleanReq misses
system.l2.ReadCleanReq_misses::total              438                       # number of ReadCleanReq misses
system.l2.ReadCleanReq_miss_latency::.switch_cpus.inst     39015000                       # number of ReadCleanReq miss cycles
system.l2.ReadCleanReq_miss_latency::total     39015000                       # number of ReadCleanReq miss cycles
system.l2.ReadCleanReq_accesses::.cpu.inst            2                       # number of ReadCleanReq accesses(hits+misses)
system.l2.ReadCleanReq_accesses::.switch_cpus.inst          456                       # number of ReadCleanReq accesses(hits+misses)
system.l2.ReadCleanReq_accesses::total            458                       # number of ReadCleanReq accesses(hits+misses)
system.l2.ReadCleanReq_miss_rate::.cpu.inst            1                       # miss rate for ReadCleanReq accesses
system.l2.ReadCleanReq_miss_rate::.switch_cpus.inst     0.956140                       # miss rate for ReadCleanReq accesses
system.l2.ReadCleanReq_miss_rate::total      0.956332                       # miss rate for ReadCleanReq accesses
system.l2.ReadCleanReq_avg_miss_latency::.switch_cpus.inst 89483.944954                       # average ReadCleanReq miss latency
[...]
system.cpu.itb.walker.pwrStateResidencyTicks::UNDEFINED 270801718644000                       # Cumulative time (in ticks) in various power states
system.cpu.dtb_walker_cache.pwrStateResidencyTicks::UNDEFINED 270801718644000                       # Cumulative time (in ticks) in various power states
system.cpu.dtb_walker_cache.blocked_cycles::no_mshrs            0                       # number of cycles access was blocked
system.cpu.dtb_walker_cache.blocked_cycles::no_targets            0                       # number of cycles access was blocked
system.cpu.dtb_walker_cache.blocked::no_mshrs            0                       # number of cycles access was blocked
system.cpu.dtb_walker_cache.blocked::no_targets            0                       # number of cycles access was blocked
system.cpu.dtb_walker_cache.avg_blocked_cycles::no_mshrs          nan                       # average number of cycles each access was blocked
system.cpu.dtb_walker_cache.avg_blocked_cycles::no_targets          nan                       # average number of cycles each access was blocked
system.cpu.dtb_walker_cache.replacements            0                       # number of replacements
system.cpu.dtb_walker_cache.tags.pwrStateResidencyTicks::UNDEFINED 270801718644000                       # Cumulative time (in ticks) in various power states
system.cpu.dtb_walker_cache.tags.tagsinuse            0                       # Cycle average of tags in use
system.cpu.dtb_walker_cache.tags.total_refs            0                       # Total number of references to valid blocks.
system.cpu.dtb_walker_cache.tags.sampled_refs            0                       # Sample count of references to valid blocks.
system.cpu.dtb_walker_cache.tags.avg_refs          nan                       # Average number of references to valid blocks.
system.cpu.dtb_walker_cache.tags.warmup_cycle            0                       # Cycle when the warmup percentage was hit.
system.cpu.dtb_walker_cache.tags.tag_accesses            0                       # Number of tag accesses
system.cpu.dtb_walker_cache.tags.data_accesses            0                       # Number of data accesses
system.cpu.dcache.pwrStateResidencyTicks::UNDEFINED 270801718644000                       # Cumulative time (in ticks) in various power states
system.cpu.dcache.demand_hits::.cpu.data            3                       # number of demand (read+write) hits
system.cpu.dcache.demand_hits::.switch_cpus.data     10307362                       # number of demand (read+write) hits
system.cpu.dcache.demand_hits::total         10307365                       # number of demand (read+write) hits
system.cpu.dcache.overall_hits::.cpu.data            3                       # number of overall hits
system.cpu.dcache.overall_hits::.switch_cpus.data     10323501                       # number of overall hits
system.cpu.dcache.overall_hits::total        10323504                       # number of overall hits
system.cpu.dcache.demand_misses::.cpu.data            3                       # number of demand (read+write) misses
system.cpu.dcache.demand_misses::.switch_cpus.data      3009279                       # number of demand (read+write) misses
system.cpu.dcache.demand_misses::total        3009282                       # number of demand (read+write) misses
system.cpu.dcache.overall_misses::.cpu.data            3                       # number of overall misses
system.cpu.dcache.overall_misses::.switch_cpus.data      3009552                       # number of overall misses
system.cpu.dcache.overall_misses::total       3009555                       # number of overall misses
system.cpu.dcache.demand_miss_latency::.switch_cpus.data 189324430049                       # number of demand (read+write) miss cycles
system.cpu.dcache.demand_miss_latency::total 189324430049                       # number of demand (read+write) miss cycles
system.cpu.dcache.overall_miss_latency::.switch_cpus.data 189324430049                       # number of overall miss cycles
system.cpu.dcache.overall_miss_latency::total 189324430049                       # number of overall miss cycles
system.cpu.dcache.demand_accesses::.cpu.data            6                       # number of demand (read+write) accesses
system.cpu.dcache.demand_accesses::.switch_cpus.data     13316641                       # number of demand (read+write) accesses
system.cpu.dcache.demand_accesses::total     13316647                       # number of demand (read+write) accesses
system.cpu.dcache.overall_accesses::.cpu.data            6                       # number of overall (read+write) accesses
system.cpu.dcache.overall_accesses::.switch_cpus.data     13333053                       # number of overall (read+write) accesses
system.cpu.dcache.overall_accesses::total     13333059                       # number of overall (read+write) accesses
system.cpu.dcache.demand_miss_rate::.cpu.data     0.500000                       # miss rate for demand accesses
system.cpu.dcache.demand_miss_rate::.switch_cpus.data     0.225979                       # miss rate for demand accesses
system.cpu.dcache.demand_miss_rate::total     0.225979                       # miss rate for demand accesses
system.cpu.dcache.overall_miss_rate::.cpu.data     0.500000                       # miss rate for overall accesses
system.cpu.dcache.overall_miss_rate::.switch_cpus.data     0.225721                       # miss rate for overall accesses
system.cpu.dcache.overall_miss_rate::total     0.225721                       # miss rate for overall accesses
system.cpu.dcache.demand_avg_miss_latency::.switch_cpus.data 62913.551734                       # average overall miss latency
system.cpu.dcache.demand_avg_miss_latency::total 62913.489015                       # average overall miss latency
system.cpu.dcache.overall_avg_miss_latency::.switch_cpus.data 62907.844772                       # average overall miss latency
system.cpu.dcache.overall_avg_miss_latency::total 62907.782064                       # average overall miss latency
system.cpu.dcache.blocked_cycles::no_mshrs      3191637                       # number of cycles access was blocked
system.cpu.dcache.blocked_cycles::no_targets           34                       # number of cycles access was blocked
system.cpu.dcache.blocked::no_mshrs             97205                       # number of cycles access was blocked
system.cpu.dcache.blocked::no_targets               1                       # number of cycles access was blocked
system.cpu.dcache.avg_blocked_cycles::no_mshrs    32.834083                       # average number of cycles each access was blocked
system.cpu.dcache.avg_blocked_cycles::no_targets           34                       # average number of cycles each access was blocked
system.cpu.dcache.writebacks::.writebacks       146360                       # number of writebacks
system.cpu.dcache.writebacks::total            146360                       # number of writebacks
system.cpu.dcache.demand_mshr_hits::.switch_cpus.data      2254823                       # number of demand (read+write) MSHR hits
system.cpu.dcache.demand_mshr_hits::total      2254823                       # number of demand (read+write) MSHR hits
system.cpu.dcache.overall_mshr_hits::.switch_cpus.data      2254823                       # number of overall MSHR hits
system.cpu.dcache.overall_mshr_hits::total      2254823                       # number of overall MSHR hits
system.cpu.dcache.demand_mshr_misses::.switch_cpus.data       754456                       # number of demand (read+write) MSHR misses
system.cpu.dcache.demand_mshr_misses::total       754456                       # number of demand (read+write) MSHR misses
system.cpu.dcache.overall_mshr_misses::.switch_cpus.data       754613                       # number of overall MSHR misses
system.cpu.dcache.overall_mshr_misses::total       754613                       # number of overall MSHR misses
system.cpu.dcache.demand_mshr_miss_latency::.switch_cpus.data  52744635051                       # number of demand (read+write) MSHR miss cycles
system.cpu.dcache.demand_mshr_miss_latency::total  52744635051                       # number of demand (read+write) MSHR miss cycles
system.cpu.dcache.overall_mshr_miss_latency::.switch_cpus.data  52751739051                       # number of overall MSHR miss cycles
system.cpu.dcache.overall_mshr_miss_latency::total  52751739051                       # number of overall MSHR miss cycles
system.cpu.dcache.demand_mshr_miss_rate::.switch_cpus.data     0.056655                       # mshr miss rate for demand accesses
system.cpu.dcache.demand_mshr_miss_rate::total     0.056655                       # mshr miss rate for demand accesses
system.cpu.dcache.overall_mshr_miss_rate::.switch_cpus.data     0.056597                       # mshr miss rate for overall accesses
system.cpu.dcache.overall_mshr_miss_rate::total     0.056597                       # mshr miss rate for overall accesses
system.cpu.dcache.demand_avg_mshr_miss_latency::.switch_cpus.data 69910.816603                       # average overall mshr miss latency
system.cpu.dcache.demand_avg_mshr_miss_latency::total 69910.816603                       # average overall mshr miss latency
system.cpu.dcache.overall_avg_mshr_miss_latency::.switch_cpus.data 69905.685498                       # average overall mshr miss latency
system.cpu.dcache.overall_avg_mshr_miss_latency::total 69905.685498                       # average overall mshr miss latency
system.cpu.dcache.replacements                 753591                       # number of replacements
system.cpu.dcache.ReadReq_hits::.cpu.data            3                       # number of ReadReq hits
system.cpu.dcache.ReadReq_hits::.switch_cpus.data      9104303                       # number of ReadReq hits
system.cpu.dcache.ReadReq_hits::total         9104306                       # number of ReadReq hits
system.cpu.dcache.ReadReq_misses::.cpu.data            2                       # number of ReadReq misses
system.cpu.dcache.ReadReq_misses::.switch_cpus.data      2962745                       # number of ReadReq misses
system.cpu.dcache.ReadReq_misses::total       2962747                       # number of ReadReq misses
system.cpu.dcache.ReadReq_miss_latency::.switch_cpus.data 185982412500                       # number of ReadReq miss cycles
system.cpu.dcache.ReadReq_miss_latency::total 185982412500                       # number of ReadReq miss cycles
system.cpu.dcache.ReadReq_accesses::.cpu.data            5                       # number of ReadReq accesses(hits+misses)
system.cpu.dcache.ReadReq_accesses::.switch_cpus.data     12067048                       # number of ReadReq accesses(hits+misses)
system.cpu.dcache.ReadReq_accesses::total     12067053                       # number of ReadReq accesses(hits+misses)
system.cpu.dcache.ReadReq_miss_rate::.cpu.data     0.400000                       # miss rate for ReadReq accesses
system.cpu.dcache.ReadReq_miss_rate::.switch_cpus.data     0.245524                       # miss rate for ReadReq accesses
system.cpu.dcache.ReadReq_miss_rate::total     0.245524                       # miss rate for ReadReq accesses
system.cpu.dcache.ReadReq_avg_miss_latency::.switch_cpus.data 62773.682008                       # average ReadReq miss latency
system.cpu.dcache.ReadReq_avg_miss_latency::total 62773.639632                       # average ReadReq miss latency
system.cpu.dcache.ReadReq_mshr_hits::.switch_cpus.data      2254598                       # number of ReadReq MSHR hits
system.cpu.dcache.ReadReq_mshr_hits::total      2254598                       # number of ReadReq MSHR hits
system.cpu.dcache.ReadReq_mshr_misses::.switch_cpus.data       708147                       # number of ReadReq MSHR misses
system.cpu.dcache.ReadReq_mshr_misses::total       708147                       # number of ReadReq MSHR misses
system.cpu.dcache.ReadReq_mshr_miss_latency::.switch_cpus.data  49458119500                       # number of ReadReq MSHR miss cycles
system.cpu.dcache.ReadReq_mshr_miss_latency::total  49458119500                       # number of ReadReq MSHR miss cycles
system.cpu.dcache.ReadReq_mshr_miss_rate::.switch_cpus.data     0.058684                       # mshr miss rate for ReadReq accesses
system.cpu.dcache.ReadReq_mshr_miss_rate::total     0.058684                       # mshr miss rate for ReadReq accesses
system.cpu.dcache.ReadReq_avg_mshr_miss_latency::.switch_cpus.data 69841.599979                       # average ReadReq mshr miss latency
system.cpu.dcache.ReadReq_avg_mshr_miss_latency::total 69841.599979                       # average ReadReq mshr miss latency
system.cpu.dcache.WriteReq_hits::.switch_cpus.data      1203059                       # number of WriteReq hits
system.cpu.dcache.WriteReq_hits::total        1203059                       # number of WriteReq hits
system.cpu.dcache.WriteReq_misses::.cpu.data            1                       # number of WriteReq misses
system.cpu.dcache.WriteReq_misses::.switch_cpus.data        46534                       # number of WriteReq misses
system.cpu.dcache.WriteReq_misses::total        46535                       # number of WriteReq misses
system.cpu.dcache.WriteReq_miss_latency::.switch_cpus.data   3342017549                       # number of WriteReq miss cycles
system.cpu.dcache.WriteReq_miss_latency::total   3342017549                       # number of WriteReq miss cycles
system.cpu.dcache.WriteReq_accesses::.cpu.data            1                       # number of WriteReq accesses(hits+misses)
system.cpu.dcache.WriteReq_accesses::.switch_cpus.data      1249593                       # number of WriteReq accesses(hits+misses)
system.cpu.dcache.WriteReq_accesses::total      1249594                       # number of WriteReq accesses(hits+misses)
system.cpu.dcache.WriteReq_miss_rate::.cpu.data            1                       # miss rate for WriteReq accesses
system.cpu.dcache.WriteReq_miss_rate::.switch_cpus.data     0.037239                       # miss rate for WriteReq accesses
system.cpu.dcache.WriteReq_miss_rate::total     0.037240                       # miss rate for WriteReq accesses
system.cpu.dcache.WriteReq_avg_miss_latency::.switch_cpus.data 71818.832445                       # average WriteReq miss latency
system.cpu.dcache.WriteReq_avg_miss_latency::total 71817.289116                       # average WriteReq miss latency
system.cpu.dcache.WriteReq_mshr_hits::.switch_cpus.data          225                       # number of WriteReq MSHR hits
system.cpu.dcache.WriteReq_mshr_hits::total          225                       # number of WriteReq MSHR hits
system.cpu.dcache.WriteReq_mshr_misses::.switch_cpus.data        46309                       # number of WriteReq MSHR misses
system.cpu.dcache.WriteReq_mshr_misses::total        46309                       # number of WriteReq MSHR misses
system.cpu.dcache.WriteReq_mshr_miss_latency::.switch_cpus.data   3286515551                       # number of WriteReq MSHR miss cycles
system.cpu.dcache.WriteReq_mshr_miss_latency::total   3286515551                       # number of WriteReq MSHR miss cycles
system.cpu.dcache.WriteReq_mshr_miss_rate::.switch_cpus.data     0.037059                       # mshr miss rate for WriteReq accesses
system.cpu.dcache.WriteReq_mshr_miss_rate::total     0.037059                       # mshr miss rate for WriteReq accesses
system.cpu.dcache.WriteReq_avg_mshr_miss_latency::.switch_cpus.data 70969.261936                       # average WriteReq mshr miss latency
system.cpu.dcache.WriteReq_avg_mshr_miss_latency::total 70969.261936                       # average WriteReq mshr miss latency
system.cpu.dcache.SoftPFReq_hits::.switch_cpus.data        16139                       # number of SoftPFReq hits
system.cpu.dcache.SoftPFReq_hits::total         16139                       # number of SoftPFReq hits
system.cpu.dcache.SoftPFReq_misses::.switch_cpus.data          273                       # number of SoftPFReq misses
system.cpu.dcache.SoftPFReq_misses::total          273                       # number of SoftPFReq misses
system.cpu.dcache.SoftPFReq_accesses::.switch_cpus.data        16412                       # number of SoftPFReq accesses(hits+misses)
system.cpu.dcache.SoftPFReq_accesses::total        16412                       # number of SoftPFReq accesses(hits+misses)
system.cpu.dcache.SoftPFReq_miss_rate::.switch_cpus.data     0.016634                       # miss rate for SoftPFReq accesses
system.cpu.dcache.SoftPFReq_miss_rate::total     0.016634                       # miss rate for SoftPFReq accesses
system.cpu.dcache.SoftPFReq_mshr_misses::.switch_cpus.data          157                       # number of SoftPFReq MSHR misses
system.cpu.dcache.SoftPFReq_mshr_misses::total          157                       # number of SoftPFReq MSHR misses
system.cpu.dcache.SoftPFReq_mshr_miss_latency::.switch_cpus.data      7104000                       # number of SoftPFReq MSHR miss cycles
system.cpu.dcache.SoftPFReq_mshr_miss_latency::total      7104000                       # number of SoftPFReq MSHR miss cycles
system.cpu.dcache.SoftPFReq_mshr_miss_rate::.switch_cpus.data     0.009566                       # mshr miss rate for SoftPFReq accesses
system.cpu.dcache.SoftPFReq_mshr_miss_rate::total     0.009566                       # mshr miss rate for SoftPFReq accesses
system.cpu.dcache.SoftPFReq_avg_mshr_miss_latency::.switch_cpus.data 45248.407643                       # average SoftPFReq mshr miss latency
system.cpu.dcache.SoftPFReq_avg_mshr_miss_latency::total 45248.407643                       # average SoftPFReq mshr miss latency
system.cpu.dcache.tags.pwrStateResidencyTicks::UNDEFINED 270801718644000                       # Cumulative time (in ticks) in various power states
system.cpu.dcache.tags.tagsinuse             0.130103                       # Cycle average of tags in use
system.cpu.dcache.tags.total_refs            11078119                       # Total number of references to valid blocks.
system.cpu.dcache.tags.sampled_refs            754615                       # Sample count of references to valid blocks.
system.cpu.dcache.tags.avg_refs             14.680491                       # Average number of references to valid blocks.
system.cpu.dcache.tags.warmup_cycle      270767280054500                       # Cycle when the warmup percentage was hit.
system.cpu.dcache.tags.occ_blocks::.cpu.data     0.000002                       # Average occupied blocks per requestor
system.cpu.dcache.tags.occ_blocks::.switch_cpus.data     0.130101                       # Average occupied blocks per requestor
system.cpu.dcache.tags.occ_percent::.cpu.data     0.000000                       # Average percentage of cache occupancy
system.cpu.dcache.tags.occ_percent::.switch_cpus.data     0.000127                       # Average percentage of cache occupancy
system.cpu.dcache.tags.occ_percent::total     0.000127                       # Average percentage of cache occupancy
system.cpu.dcache.tags.occ_task_id_blocks::1024         1024                       # Occupied blocks per task id
system.cpu.dcache.tags.age_task_id_blocks_1024::0          204                       # Occupied blocks per task id
system.cpu.dcache.tags.age_task_id_blocks_1024::1          817                       # Occupied blocks per task id
system.cpu.dcache.tags.age_task_id_blocks_1024::3            3                       # Occupied blocks per task id
system.cpu.dcache.tags.occ_task_id_percent::1024            1                       # Percentage of cache occupancy per task id
system.cpu.dcache.tags.tag_accesses          27420733                       # Number of tag accesses
system.cpu.dcache.tags.data_accesses         27420733                       # Number of data accesses

---------- End Simulation Statistics   ----------
