
---------- Begin Simulation Statistics ----------
final_tick                               1774540425000                       # Number of ticks from beginning of simulation (restored from checkpoints and never reset)
host_inst_rate                                  21103                       # Simulator instruction rate (inst/s)
host_mem_usage                                 887588                       # Number of bytes of host memory used
host_op_rate                                    39777                       # Simulator op (including micro ops) rate (op/s)
host_seconds                                   473.88                       # Real time elapsed on the host
host_tick_rate                               46251486                       # Simulator tick rate (ticks/s)
sim_freq                                 1000000000000                       # Frequency of simulated ticks
sim_insts                                    10000010                       # Number of instructions simulated
sim_ops                                      18849211                       # Number of ops (including micro ops) simulated
sim_seconds                                  0.021918                       # Number of seconds simulated
sim_ticks                                 21917566250                       # Number of ticks simulated
system.cpu.committedInsts                           8                       # Number of instructions committed
system.cpu.committedOps                            15                       # Number of ops (including micro ops) committed
system.cpu.dtb.rdAccesses                           3                       # TLB accesses on read requests
system.cpu.dtb.rdMisses                             0                       # TLB misses on read requests
system.cpu.dtb.wrAccesses                           0                       # TLB accesses on write requests
system.cpu.dtb.wrMisses                             0                       # TLB misses on write requests
system.cpu.idle_fraction                            0                       # Percentage of idle cycles
system.cpu.itb.rdAccesses                           0                       # TLB accesses on read requests
system.cpu.itb.rdMisses                             0                       # TLB misses on read requests
system.cpu.itb.wrAccesses                          12                       # TLB accesses on write requests
system.cpu.itb.wrMisses                             0                       # TLB misses on write requests
system.cpu.not_idle_fraction                        1                       # Percentage of non-idle cycles
system.cpu.numCycles                               19                       # number of cpu cycles simulated
system.cpu.numWorkItemsCompleted                    0                       # number of work items this cpu completed
system.cpu.numWorkItemsStarted                      0                       # number of work items this cpu started
system.cpu.num_busy_cycles                         19                       # Number of busy cycles
system.cpu.num_conditional_control_insts            0                       # number of instructions that are conditional controls
system.cpu.num_fp_alu_accesses                     11                       # Number of float alu accesses
system.cpu.num_fp_insts                            11                       # number of float instructions
system.cpu.num_fp_register_reads                   19                       # number of times the floating registers were read
system.cpu.num_fp_register_writes                  11                       # number of times the floating registers were written
system.cpu.num_func_calls                           0                       # number of times a function call or return occured
system.cpu.num_idle_cycles                          0                       # Number of idle cycles
system.cpu.num_int_alu_accesses                     7                       # Number of integer alu accesses
system.cpu.num_int_insts                            7                       # number of integer instructions
system.cpu.num_int_register_reads                  15                       # number of times the integer registers were read
system.cpu.num_int_register_writes                  4                       # number of times the integer registers were written
system.cpu.num_load_insts                           3                       # Number of load instructions
system.cpu.num_mem_refs                             3                       # number of memory refs
system.cpu.num_store_insts                          0                       # Number of store instructions
system.cpu.num_vec_alu_accesses                     0                       # Number of vector alu accesses
system.cpu.num_vec_insts                            0                       # number of vector instructions
system.cpu.num_vec_register_reads                   0                       # number of times the vector registers were read
system.cpu.num_vec_register_writes                  0                       # number of times the vector registers were written
system.cpu.op_class::No_OpClass                     0      0.00%      0.00% # Class of executed instruction
system.cpu.op_class::IntAlu                         6     40.00%     40.00% # Class of executed instruction
system.cpu.op_class::IntMult                        0      0.00%     40.00% # Class of executed instruction
system.cpu.op_class::IntDiv                         0      0.00%     40.00% # Class of executed instruction
system.cpu.op_class::FloatAdd                       1      6.67%     46.67% # Class of executed instruction
system.cpu.op_class::FloatCmp                       0      0.00%     46.67% # Class of executed instruction
system.cpu.op_class::FloatCvt                       0      0.00%     46.67% # Class of executed instruction
system.cpu.op_class::FloatMult                      0      0.00%     46.67% # Class of executed instruction
system.cpu.op_class::FloatMultAcc                   0      0.00%     46.67% # Class of executed instruction
system.cpu.op_class::FloatDiv                       0      0.00%     46.67% # Class of executed instruction
system.cpu.op_class::FloatMisc                      0      0.00%     46.67% # Class of executed instruction
system.cpu.op_class::FloatSqrt                      0      0.00%     46.67% # Class of executed instruction
system.cpu.op_class::SimdAdd                        0      0.00%     46.67% # Class of executed instruction
system.cpu.op_class::SimdAddAcc                     0      0.00%     46.67% # Class of executed instruction
system.cpu.op_class::SimdAlu                        0      0.00%     46.67% # Class of executed instruction
system.cpu.op_class::SimdCmp                        0      0.00%     46.67% # Class of executed instruction
system.cpu.op_class::SimdCvt                        0      0.00%     46.67% # Class of executed instruction
system.cpu.op_class::SimdMisc                       0      0.00%     46.67% # Class of executed instruction
system.cpu.op_class::SimdMult                       0      0.00%     46.67% # Class of executed instruction
system.cpu.op_class::SimdMultAcc                    0      0.00%     46.67% # Class of executed instruction
system.cpu.op_class::SimdShift                      0      0.00%     46.67% # Class of executed instruction
system.cpu.op_class::SimdShiftAcc                   0      0.00%     46.67% # Class of executed instruction
system.cpu.op_class::SimdDiv                        0      0.00%     46.67% # Class of executed instruction
system.cpu.op_class::SimdSqrt                       0      0.00%     46.67% # Class of executed instruction
system.cpu.op_class::SimdFloatAdd                   2     13.33%     60.00% # Class of executed instruction
system.cpu.op_class::SimdFloatAlu                   0      0.00%     60.00% # Class of executed instruction
system.cpu.op_class::SimdFloatCmp                   0      0.00%     60.00% # Class of executed instruction
system.cpu.op_class::SimdFloatCvt                   0      0.00%     60.00% # Class of executed instruction
system.cpu.op_class::SimdFloatDiv                   0      0.00%     60.00% # Class of executed instruction
system.cpu.op_class::SimdFloatMisc                  0      0.00%     60.00% # Class of executed instruction
system.cpu.op_class::SimdFloatMult                  3     20.00%     80.00% # Class of executed instruction
system.cpu.op_class::SimdFloatMultAcc               0      0.00%     80.00% # Class of executed instruction
system.cpu.op_class::SimdFloatSqrt                  0      0.00%     80.00% # Class of executed instruction
system.cpu.op_class::SimdReduceAdd                  0      0.00%     80.00% # Class of executed instruction
system.cpu.op_class::SimdReduceAlu                  0      0.00%     80.00% # Class of executed instruction
system.cpu.op_class::SimdReduceCmp                  0      0.00%     80.00% # Class of executed instruction
system.cpu.op_class::SimdFloatReduceAdd             0      0.00%     80.00% # Class of executed instruction
system.cpu.op_class::SimdFloatReduceCmp             0      0.00%     80.00% # Class of executed instruction
system.cpu.op_class::SimdAes                        0      0.00%     80.00% # Class of executed instruction
system.cpu.op_class::SimdAesMix                     0      0.00%     80.00% # Class of executed instruction
system.cpu.op_class::SimdSha1Hash                   0      0.00%     80.00% # Class of executed instruction
system.cpu.op_class::SimdSha1Hash2                  0      0.00%     80.00% # Class of executed instruction
system.cpu.op_class::SimdSha256Hash                 0      0.00%     80.00% # Class of executed instruction
system.cpu.op_class::SimdSha256Hash2                0      0.00%     80.00% # Class of executed instruction
system.cpu.op_class::SimdShaSigma2                  0      0.00%     80.00% # Class of executed instruction
system.cpu.op_class::SimdShaSigma3                  0      0.00%     80.00% # Class of executed instruction
system.cpu.op_class::SimdPredAlu                    0      0.00%     80.00% # Class of executed instruction
system.cpu.op_class::MemRead                        0      0.00%     80.00% # Class of executed instruction
system.cpu.op_class::MemWrite                       0      0.00%     80.00% # Class of executed instruction
system.cpu.op_class::FloatMemRead                   3     20.00%    100.00% # Class of executed instruction
system.cpu.op_class::FloatMemWrite                  0      0.00%    100.00% # Class of executed instruction
system.cpu.op_class::IprAccess                      0      0.00%    100.00% # Class of executed instruction
system.cpu.op_class::InstPrefetch                   0      0.00%    100.00% # Class of executed instruction
system.cpu.op_class::total                         15                       # Class of executed instruction
system.cpu.workload.numSyscalls                     0                       # Number of system calls
system.membus.snoop_filter.hit_multi_requests            0                       # Number of requests hitting in the snoop filter with multiple (>1) holders of the requested data.
system.membus.snoop_filter.hit_multi_snoops            0                       # Number of snoops hitting in the snoop filter with multiple (>1) holders of the requested data.
system.membus.snoop_filter.hit_single_requests       244305                       # Number of requests hitting in the snoop filter with a single holder of the requested data.
system.membus.snoop_filter.hit_single_snoops            0                       # Number of snoops hitting in the snoop filter with a single holder of the requested data.
system.membus.snoop_filter.tot_requests        497165                       # Total number of requests made to the snoop filter.
system.membus.snoop_filter.tot_snoops               0                       # Total number of snoops made to the snoop filter.
system.switch_cpus.branchPred.BTBCorrect            0                       # Number of correct BTB predictions (this stat may not work properly.
system.switch_cpus.branchPred.BTBHitPct      0.000000                       # BTB Hit Percentage
system.switch_cpus.branchPred.BTBHits               0                       # Number of BTB hits
system.switch_cpus.branchPred.BTBLookups      3682644                       # Number of BTB lookups
system.switch_cpus.branchPred.RASInCorrect            9                       # Number of incorrect RAS predictions.
system.switch_cpus.branchPred.condIncorrect         7346                       # Number of conditional branches incorrect
system.switch_cpus.branchPred.condPredicted      4032928                       # Number of conditional branches predicted
system.switch_cpus.branchPred.indirectHits      3155689                       # Number of indirect target hits.
system.switch_cpus.branchPred.indirectLookups      3682644                       # Number of indirect predictor lookups.
system.switch_cpus.branchPred.indirectMisses       526955                       # Number of indirect misses.
system.switch_cpus.branchPred.lookups         5026361                       # Number of BP lookups
system.switch_cpus.branchPred.usedRAS          493182                       # Number of times the RAS was used to get a target.
system.switch_cpus.branchPredindirectMispredicted         1674                       # Number of mispredicted indirect branches.
system.switch_cpus.cc_regfile_reads          14440884                       # number of cc regfile reads
system.switch_cpus.cc_regfile_writes         14511522                       # number of cc regfile writes
system.switch_cpus.commit.amos                      0                       # Number of atomic instructions committed
system.switch_cpus.commit.branchMispredicts         7397                       # The number of times a branch was mispredicted
system.switch_cpus.commit.branches            1162057                       # Number of branches committed
system.switch_cpus.commit.bw_lim_events       1545487                       # number cycles where commit BW limit reached
system.switch_cpus.commit.commitNonSpecStalls        23852                       # The number of times commit has been forced to stall to communicate backwards
system.switch_cpus.commit.commitSquashedInsts     33171236                       # The number of squashed insts skipped by commit
system.switch_cpus.commit.committedInsts     10000002                       # Number of instructions committed
system.switch_cpus.commit.committedOps       18849196                       # Number of ops (including micro ops) committed
system.switch_cpus.commit.committed_per_cycle::samples     39501158                       # Number of insts commited each cycle
system.switch_cpus.commit.committed_per_cycle::mean     0.477181                       # Number of insts commited each cycle
system.switch_cpus.commit.committed_per_cycle::stdev     1.686034                       # Number of insts commited each cycle
system.switch_cpus.commit.committed_per_cycle::underflows            0      0.00%      0.00% # Number of insts commited each cycle
system.switch_cpus.commit.committed_per_cycle::0     35503021     89.88%     89.88% # Number of insts commited each cycle
system.switch_cpus.commit.committed_per_cycle::1       793787      2.01%     91.89% # Number of insts commited each cycle
system.switch_cpus.commit.committed_per_cycle::2       372905      0.94%     92.83% # Number of insts commited each cycle
system.switch_cpus.commit.committed_per_cycle::3       561173      1.42%     94.25% # Number of insts commited each cycle
system.switch_cpus.commit.committed_per_cycle::4       444559      1.13%     95.38% # Number of insts commited each cycle
system.switch_cpus.commit.committed_per_cycle::5       201455      0.51%     95.89% # Number of insts commited each cycle
system.switch_cpus.commit.committed_per_cycle::6        74724      0.19%     96.08% # Number of insts commited each cycle
system.switch_cpus.commit.committed_per_cycle::7         4047      0.01%     96.09% # Number of insts commited each cycle
system.switch_cpus.commit.committed_per_cycle::8      1545487      3.91%    100.00% # Number of insts commited each cycle
system.switch_cpus.commit.committed_per_cycle::overflows            0      0.00%    100.00% # Number of insts commited each cycle
system.switch_cpus.commit.committed_per_cycle::min_value            0                       # Number of insts commited each cycle
system.switch_cpus.commit.committed_per_cycle::max_value            8                       # Number of insts commited each cycle
system.switch_cpus.commit.committed_per_cycle::total     39501158                       # Number of insts commited each cycle
system.switch_cpus.commit.fp_insts            7755697                       # Number of committed floating point instructions.
system.switch_cpus.commit.function_calls       133713                       # Number of function calls committed.
system.switch_cpus.commit.int_insts          14669480                       # Number of committed integer instructions.
system.switch_cpus.commit.loads               3342337                       # Number of loads committed
system.switch_cpus.commit.membars                   0                       # Number of memory barriers committed
system.switch_cpus.commit.op_class_0::No_OpClass         3302      0.02%      0.02% # Class of committed instruction
system.switch_cpus.commit.op_class_0::IntAlu     10301514     54.65%     54.67% # Class of committed instruction
system.switch_cpus.commit.op_class_0::IntMult       106274      0.56%     55.23% # Class of committed instruction
system.switch_cpus.commit.op_class_0::IntDiv            0      0.00%     55.23% # Class of committed instruction
system.switch_cpus.commit.op_class_0::FloatAdd       637733      3.38%     58.62% # Class of committed instruction
system.switch_cpus.commit.op_class_0::FloatCmp            0      0.00%     58.62% # Class of committed instruction
system.switch_cpus.commit.op_class_0::FloatCvt            0      0.00%     58.62% # Class of committed instruction
system.switch_cpus.commit.op_class_0::FloatMult            0      0.00%     58.62% # Class of committed instruction
system.switch_cpus.commit.op_class_0::FloatMultAcc            0      0.00%     58.62% # Class of committed instruction
system.switch_cpus.commit.op_class_0::FloatDiv            0      0.00%     58.62% # Class of committed instruction
system.switch_cpus.commit.op_class_0::FloatMisc            0      0.00%     58.62% # Class of committed instruction
system.switch_cpus.commit.op_class_0::FloatSqrt            0      0.00%     58.62% # Class of committed instruction
system.switch_cpus.commit.op_class_0::SimdAdd          216      0.00%     58.62% # Class of committed instruction
system.switch_cpus.commit.op_class_0::SimdAddAcc            0      0.00%     58.62% # Class of committed instruction
system.switch_cpus.commit.op_class_0::SimdAlu       216430      1.15%     59.77% # Class of committed instruction
system.switch_cpus.commit.op_class_0::SimdCmp            0      0.00%     59.77% # Class of committed instruction
system.switch_cpus.commit.op_class_0::SimdCvt         2916      0.02%     59.78% # Class of committed instruction
system.switch_cpus.commit.op_class_0::SimdMisc       269023      1.43%     61.21% # Class of committed instruction
system.switch_cpus.commit.op_class_0::SimdMult            0      0.00%     61.21% # Class of committed instruction
system.switch_cpus.commit.op_class_0::SimdMultAcc            0      0.00%     61.21% # Class of committed instruction
system.switch_cpus.commit.op_class_0::SimdShift            0      0.00%     61.21% # Class of committed instruction
system.switch_cpus.commit.op_class_0::SimdShiftAcc            0      0.00%     61.21% # Class of committed instruction
system.switch_cpus.commit.op_class_0::SimdDiv            0      0.00%     61.21% # Class of committed instruction
system.switch_cpus.commit.op_class_0::SimdSqrt            0      0.00%     61.21% # Class of committed instruction
system.switch_cpus.commit.op_class_0::SimdFloatAdd       956439      5.07%     66.28% # Class of committed instruction
system.switch_cpus.commit.op_class_0::SimdFloatAlu            0      0.00%     66.28% # Class of committed instruction
system.switch_cpus.commit.op_class_0::SimdFloatCmp            0      0.00%     66.28% # Class of committed instruction
system.switch_cpus.commit.op_class_0::SimdFloatCvt       159408      0.85%     67.13% # Class of committed instruction
system.switch_cpus.commit.op_class_0::SimdFloatDiv        53135      0.28%     67.41% # Class of committed instruction
system.switch_cpus.commit.op_class_0::SimdFloatMisc            0      0.00%     67.41% # Class of committed instruction
system.switch_cpus.commit.op_class_0::SimdFloatMult       850169      4.51%     71.92% # Class of committed instruction
system.switch_cpus.commit.op_class_0::SimdFloatMultAcc            0      0.00%     71.92% # Class of committed instruction
system.switch_cpus.commit.op_class_0::SimdFloatSqrt            0      0.00%     71.92% # Class of committed instruction
system.switch_cpus.commit.op_class_0::SimdReduceAdd            0      0.00%     71.92% # Class of committed instruction
system.switch_cpus.commit.op_class_0::SimdReduceAlu            0      0.00%     71.92% # Class of committed instruction
system.switch_cpus.commit.op_class_0::SimdReduceCmp            0      0.00%     71.92% # Class of committed instruction
system.switch_cpus.commit.op_class_0::SimdFloatReduceAdd            0      0.00%     71.92% # Class of committed instruction
system.switch_cpus.commit.op_class_0::SimdFloatReduceCmp            0      0.00%     71.92% # Class of committed instruction
system.switch_cpus.commit.op_class_0::SimdAes            0      0.00%     71.92% # Class of committed instruction
system.switch_cpus.commit.op_class_0::SimdAesMix            0      0.00%     71.92% # Class of committed instruction
system.switch_cpus.commit.op_class_0::SimdSha1Hash            0      0.00%     71.92% # Class of committed instruction
system.switch_cpus.commit.op_class_0::SimdSha1Hash2            0      0.00%     71.92% # Class of committed instruction
system.switch_cpus.commit.op_class_0::SimdSha256Hash            0      0.00%     71.92% # Class of committed instruction
system.switch_cpus.commit.op_class_0::SimdSha256Hash2            0      0.00%     71.92% # Class of committed instruction
system.switch_cpus.commit.op_class_0::SimdShaSigma2            0      0.00%     71.92% # Class of committed instruction
system.switch_cpus.commit.op_class_0::SimdShaSigma3            0      0.00%     71.92% # Class of committed instruction
system.switch_cpus.commit.op_class_0::SimdPredAlu            0      0.00%     71.92% # Class of committed instruction
system.switch_cpus.commit.op_class_0::MemRead      1115630      5.92%     77.84% # Class of committed instruction
system.switch_cpus.commit.op_class_0::MemWrite       842245      4.47%     82.31% # Class of committed instruction
system.switch_cpus.commit.op_class_0::FloatMemRead      2226707     11.81%     94.12% # Class of committed instruction
system.switch_cpus.commit.op_class_0::FloatMemWrite      1108055      5.88%    100.00% # Class of committed instruction
system.switch_cpus.commit.op_class_0::IprAccess            0      0.00%    100.00% # Class of committed instruction
system.switch_cpus.commit.op_class_0::InstPrefetch            0      0.00%    100.00% # Class of committed instruction
system.switch_cpus.commit.op_class_0::total     18849196                       # Class of committed instruction
system.switch_cpus.commit.refs                5292637                       # Number of memory references committed
system.switch_cpus.commit.swp_count                 0                       # Number of s/w prefetches committed
system.switch_cpus.commit.vec_insts                 0                       # Number of committed Vector instructions.
system.switch_cpus.committedInsts            10000002                       # Number of Instructions Simulated
system.switch_cpus.committedOps              18849196                       # Number of Ops (including micro ops) Simulated
system.switch_cpus.cpi                       4.383510                       # CPI: Cycles Per Instruction
system.switch_cpus.cpi_total                 4.383510                       # CPI: Total CPI of All Threads
system.switch_cpus.decode.BlockedCycles      30470539                       # Number of cycles decode is blocked
system.switch_cpus.decode.DecodedInsts       64778989                       # Number of instructions handled by decode
system.switch_cpus.decode.IdleCycles          3608112                       # Number of cycles decode is idle
system.switch_cpus.decode.RunCycles           8519789                       # Number of cycles decode is running
system.switch_cpus.decode.SquashCycles         389330                       # Number of cycles decode is squashing
system.switch_cpus.decode.UnblockCycles        820347                       # Number of cycles decode is unblocking
system.switch_cpus.dtb.rdAccesses            12377236                       # TLB accesses on read requests
system.switch_cpus.dtb.rdMisses                  2075                       # TLB misses on read requests
system.switch_cpus.dtb.wrAccesses            10606159                       # TLB accesses on write requests
system.switch_cpus.dtb.wrMisses                  1998                       # TLB misses on write requests
system.switch_cpus.fetch.Branches             5026361                       # Number of branches that fetch encountered
system.switch_cpus.fetch.CacheLines           6314877                       # Number of cache lines fetched
system.switch_cpus.fetch.Cycles              36845893                       # Number of cycles fetch has run and was not squashing or blocked
system.switch_cpus.fetch.IcacheSquashes         46594                       # Number of outstanding Icache misses that were squashed
system.switch_cpus.fetch.Insts               35719342                       # Number of instructions fetch has processed
system.switch_cpus.fetch.MiscStallCycles           51                       # Number of cycles fetch has spent waiting on interrupts, or bad addresses, or out of MSHRs
system.switch_cpus.fetch.PendingTrapStallCycles          481                       # Number of stall cycles due to pending traps
system.switch_cpus.fetch.SquashCycles          778660                       # Number of cycles fetch has spent squashing
system.switch_cpus.fetch.branchRate          0.114665                       # Number of branch fetches per cycle
system.switch_cpus.fetch.icacheStallCycles      6572371                       # Number of cycles fetch is stalled on an Icache miss
system.switch_cpus.fetch.predictedBranches      3648871                       # Number of branches that fetch has predicted taken
system.switch_cpus.fetch.rate                0.814857                       # Number of inst fetches per cycle
system.switch_cpus.fetch.rateDist::samples     43808126                       # Number of instructions fetched each cycle (Total)
system.switch_cpus.fetch.rateDist::mean      1.762679                       # Number of instructions fetched each cycle (Total)
system.switch_cpus.fetch.rateDist::stdev     3.041165                       # Number of instructions fetched each cycle (Total)
system.switch_cpus.fetch.rateDist::underflows            0      0.00%      0.00% # Number of instructions fetched each cycle (Total)
system.switch_cpus.fetch.rateDist::0         31129908     71.06%     71.06% # Number of instructions fetched each cycle (Total)
system.switch_cpus.fetch.rateDist::1           701925      1.60%     72.66% # Number of instructions fetched each cycle (Total)
system.switch_cpus.fetch.rateDist::2           737804      1.68%     74.35% # Number of instructions fetched each cycle (Total)
system.switch_cpus.fetch.rateDist::3           987213      2.25%     76.60% # Number of instructions fetched each cycle (Total)
system.switch_cpus.fetch.rateDist::4          1260542      2.88%     79.48% # Number of instructions fetched each cycle (Total)
system.switch_cpus.fetch.rateDist::5           779629      1.78%     81.26% # Number of instructions fetched each cycle (Total)
system.switch_cpus.fetch.rateDist::6           901552      2.06%     83.31% # Number of instructions fetched each cycle (Total)
system.switch_cpus.fetch.rateDist::7           745577      1.70%     85.02% # Number of instructions fetched each cycle (Total)
system.switch_cpus.fetch.rateDist::8          6563976     14.98%    100.00% # Number of instructions fetched each cycle (Total)
system.switch_cpus.fetch.rateDist::overflows            0      0.00%    100.00% # Number of instructions fetched each cycle (Total)
system.switch_cpus.fetch.rateDist::min_value            0                       # Number of instructions fetched each cycle (Total)
system.switch_cpus.fetch.rateDist::max_value            8                       # Number of instructions fetched each cycle (Total)
system.switch_cpus.fetch.rateDist::total     43808126                       # Number of instructions fetched each cycle (Total)
system.switch_cpus.fp_regfile_reads          16037973                       # number of floating regfile reads
system.switch_cpus.fp_regfile_writes         12336267                       # number of floating regfile writes
system.switch_cpus.idleCycles                   26986                       # Total number of cycles that the CPU has spent unscheduled due to idling
system.switch_cpus.iew.branchMispredicts         9963                       # Number of branch mispredicts detected at execute
system.switch_cpus.iew.exec_branches          3500193                       # Number of branches executed
system.switch_cpus.iew.exec_nop                     0                       # number of nop insts executed
system.switch_cpus.iew.exec_rate             1.306650                       # Inst execution rate
system.switch_cpus.iew.exec_refs             23366083                       # number of memory reference insts executed
system.switch_cpus.iew.exec_stores           10606159                       # Number of stores executed
system.switch_cpus.iew.exec_swp                     0                       # number of swp insts executed
system.switch_cpus.iew.iewBlockCycles         7423535                       # Number of cycles IEW is blocking
system.switch_cpus.iew.iewDispLoadInsts      12602002                       # Number of dispatched load instructions
system.switch_cpus.iew.iewDispNonSpecInsts            0                       # Number of dispatched non-speculative instructions
system.switch_cpus.iew.iewDispSquashedInsts          133                       # Number of squashed instructions skipped by dispatch
system.switch_cpus.iew.iewDispStoreInsts     13733256                       # Number of dispatched store instructions
system.switch_cpus.iew.iewDispatchedInsts     61090703                       # Number of instructions dispatched to IQ
system.switch_cpus.iew.iewExecLoadInsts      12759924                       # Number of load instructions executed
system.switch_cpus.iew.iewExecSquashedInsts       423516                       # Number of squashed instructions skipped in execute
system.switch_cpus.iew.iewExecutedInsts      57277133                       # Number of executed instructions
system.switch_cpus.iew.iewIQFullEvents          30220                       # Number of times the IQ has become full, causing a stall
system.switch_cpus.iew.iewIdleCycles                0                       # Number of cycles IEW is idle
system.switch_cpus.iew.iewLSQFullEvents       1421339                       # Number of times the LSQ has become full, causing a stall
system.switch_cpus.iew.iewSquashCycles         389330                       # Number of cycles IEW is squashing
system.switch_cpus.iew.iewUnblockCycles       1338388                       # Number of cycles IEW is unblocking
system.switch_cpus.iew.lsq.thread0.blockedLoads            0                       # Number of blocked loads due to partial load-store forwarding
system.switch_cpus.iew.lsq.thread0.cacheBlocked        24662                       # Number of times an access to memory failed due to the cache being blocked
system.switch_cpus.iew.lsq.thread0.forwLoads       322406                       # Number of loads that had data forwarded from stores
system.switch_cpus.iew.lsq.thread0.ignoredResponses           28                       # Number of memory responses ignored because the instruction is squashed
system.switch_cpus.iew.lsq.thread0.invAddrLoads            0                       # Number of loads ignored due to an invalid address
system.switch_cpus.iew.lsq.thread0.invAddrSwpfs            0                       # Number of software prefetches ignored due to an invalid address
system.switch_cpus.iew.lsq.thread0.memOrderViolation          334                       # Number of memory ordering violations
system.switch_cpus.iew.lsq.thread0.rescheduledLoads            5                       # Number of loads that were rescheduled
system.switch_cpus.iew.lsq.thread0.squashedLoads      9259649                       # Number of loads squashed
system.switch_cpus.iew.lsq.thread0.squashedStores     11782955                       # Number of stores squashed
system.switch_cpus.iew.memOrderViolationEvents          334                       # Number of memory order violations
system.switch_cpus.iew.predictedNotTakenIncorrect         3443                       # Number of branches that were predicted not taken incorrectly
system.switch_cpus.iew.predictedTakenIncorrect         6520                       # Number of branches that were predicted taken incorrectly
system.switch_cpus.iew.wb_consumers          42224432                       # num instructions consuming a value
system.switch_cpus.iew.wb_count              52851678                       # cumulative count of insts written-back
system.switch_cpus.iew.wb_fanout             0.718999                       # average fanout of values written-back
system.switch_cpus.iew.wb_producers          30359312                       # num instructions producing a value
system.switch_cpus.iew.wb_rate               1.205693                       # insts written-back per cycle
system.switch_cpus.iew.wb_sent               56277310                       # cumulative count of insts sent to commit
system.switch_cpus.int_regfile_reads         76790566                       # number of integer regfile reads
system.switch_cpus.int_regfile_writes        26464450                       # number of integer regfile writes
system.switch_cpus.ipc                       0.228128                       # IPC: Instructions Per Cycle
system.switch_cpus.ipc_total                 0.228128                       # IPC: Total IPC of All Threads
system.switch_cpus.iq.FU_type_0::No_OpClass      3292532      5.71%      5.71% # Type of FU issued
system.switch_cpus.iq.FU_type_0::IntAlu      27629813     47.88%     53.59% # Type of FU issued
system.switch_cpus.iq.FU_type_0::IntMult       106274      0.18%     53.78% # Type of FU issued
system.switch_cpus.iq.FU_type_0::IntDiv             0      0.00%     53.78% # Type of FU issued
system.switch_cpus.iq.FU_type_0::FloatAdd       639125      1.11%     54.88% # Type of FU issued
system.switch_cpus.iq.FU_type_0::FloatCmp            0      0.00%     54.88% # Type of FU issued
system.switch_cpus.iq.FU_type_0::FloatCvt            0      0.00%     54.88% # Type of FU issued
system.switch_cpus.iq.FU_type_0::FloatMult            0      0.00%     54.88% # Type of FU issued
system.switch_cpus.iq.FU_type_0::FloatMultAcc            0      0.00%     54.88% # Type of FU issued
system.switch_cpus.iq.FU_type_0::FloatDiv            0      0.00%     54.88% # Type of FU issued
system.switch_cpus.iq.FU_type_0::FloatMisc            0      0.00%     54.88% # Type of FU issued
system.switch_cpus.iq.FU_type_0::FloatSqrt            0      0.00%     54.88% # Type of FU issued
system.switch_cpus.iq.FU_type_0::SimdAdd          224      0.00%     54.88% # Type of FU issued
system.switch_cpus.iq.FU_type_0::SimdAddAcc            0      0.00%     54.88% # Type of FU issued
system.switch_cpus.iq.FU_type_0::SimdAlu       216768      0.38%     55.26% # Type of FU issued
system.switch_cpus.iq.FU_type_0::SimdCmp            0      0.00%     55.26% # Type of FU issued
system.switch_cpus.iq.FU_type_0::SimdCvt         2974      0.01%     55.26% # Type of FU issued
system.switch_cpus.iq.FU_type_0::SimdMisc       269086      0.47%     55.73% # Type of FU issued
system.switch_cpus.iq.FU_type_0::SimdMult            0      0.00%     55.73% # Type of FU issued
system.switch_cpus.iq.FU_type_0::SimdMultAcc            0      0.00%     55.73% # Type of FU issued
system.switch_cpus.iq.FU_type_0::SimdShift            0      0.00%     55.73% # Type of FU issued
system.switch_cpus.iq.FU_type_0::SimdShiftAcc            0      0.00%     55.73% # Type of FU issued
system.switch_cpus.iq.FU_type_0::SimdDiv            0      0.00%     55.73% # Type of FU issued
system.switch_cpus.iq.FU_type_0::SimdSqrt            0      0.00%     55.73% # Type of FU issued
system.switch_cpus.iq.FU_type_0::SimdFloatAdd       956439      1.66%     57.39% # Type of FU issued
system.switch_cpus.iq.FU_type_0::SimdFloatAlu            0      0.00%     57.39% # Type of FU issued
system.switch_cpus.iq.FU_type_0::SimdFloatCmp            0      0.00%     57.39% # Type of FU issued
system.switch_cpus.iq.FU_type_0::SimdFloatCvt       159408      0.28%     57.66% # Type of FU issued
system.switch_cpus.iq.FU_type_0::SimdFloatDiv        53135      0.09%     57.76% # Type of FU issued
system.switch_cpus.iq.FU_type_0::SimdFloatMisc            0      0.00%     57.76% # Type of FU issued
system.switch_cpus.iq.FU_type_0::SimdFloatMult       850169      1.47%     59.23% # Type of FU issued
system.switch_cpus.iq.FU_type_0::SimdFloatMultAcc            0      0.00%     59.23% # Type of FU issued
system.switch_cpus.iq.FU_type_0::SimdFloatSqrt            0      0.00%     59.23% # Type of FU issued
system.switch_cpus.iq.FU_type_0::SimdReduceAdd            0      0.00%     59.23% # Type of FU issued
system.switch_cpus.iq.FU_type_0::SimdReduceAlu            0      0.00%     59.23% # Type of FU issued
system.switch_cpus.iq.FU_type_0::SimdReduceCmp            0      0.00%     59.23% # Type of FU issued
system.switch_cpus.iq.FU_type_0::SimdFloatReduceAdd            0      0.00%     59.23% # Type of FU issued
system.switch_cpus.iq.FU_type_0::SimdFloatReduceCmp            0      0.00%     59.23% # Type of FU issued
system.switch_cpus.iq.FU_type_0::SimdAes            0      0.00%     59.23% # Type of FU issued
system.switch_cpus.iq.FU_type_0::SimdAesMix            0      0.00%     59.23% # Type of FU issued
system.switch_cpus.iq.FU_type_0::SimdSha1Hash            0      0.00%     59.23% # Type of FU issued
system.switch_cpus.iq.FU_type_0::SimdSha1Hash2            0      0.00%     59.23% # Type of FU issued
system.switch_cpus.iq.FU_type_0::SimdSha256Hash            0      0.00%     59.23% # Type of FU issued
system.switch_cpus.iq.FU_type_0::SimdSha256Hash2            0      0.00%     59.23% # Type of FU issued
system.switch_cpus.iq.FU_type_0::SimdShaSigma2            0      0.00%     59.23% # Type of FU issued
system.switch_cpus.iq.FU_type_0::SimdShaSigma3            0      0.00%     59.23% # Type of FU issued
system.switch_cpus.iq.FU_type_0::SimdPredAlu            0      0.00%     59.23% # Type of FU issued
system.switch_cpus.iq.FU_type_0::MemRead      3658119      6.34%     65.57% # Type of FU issued
system.switch_cpus.iq.FU_type_0::MemWrite      3730927      6.47%     72.04% # Type of FU issued
system.switch_cpus.iq.FU_type_0::FloatMemRead      9259571     16.05%     88.08% # Type of FU issued
system.switch_cpus.iq.FU_type_0::FloatMemWrite      6876090     11.92%    100.00% # Type of FU issued
system.switch_cpus.iq.FU_type_0::IprAccess            0      0.00%    100.00% # Type of FU issued
system.switch_cpus.iq.FU_type_0::InstPrefetch            0      0.00%    100.00% # Type of FU issued
system.switch_cpus.iq.FU_type_0::total       57700654                       # Type of FU issued
system.switch_cpus.iq.fp_alu_accesses        22800068                       # Number of floating point alu accesses
system.switch_cpus.iq.fp_inst_queue_reads     43416263                       # Number of floating instruction queue reads
system.switch_cpus.iq.fp_inst_queue_wakeup_accesses     19504200                       # Number of floating instruction queue wakeup accesses
system.switch_cpus.iq.fp_inst_queue_writes     38364987                       # Number of floating instruction queue writes
system.switch_cpus.iq.fu_busy_cnt             3098979                       # FU busy when requested
system.switch_cpus.iq.fu_busy_rate           0.053708                       # FU busy rate (busy events/executed inst)
system.switch_cpus.iq.fu_full::No_OpClass            0      0.00%      0.00% # attempts to use FU when none available
system.switch_cpus.iq.fu_full::IntAlu          181860      5.87%      5.87% # attempts to use FU when none available
system.switch_cpus.iq.fu_full::IntMult              0      0.00%      5.87% # attempts to use FU when none available
system.switch_cpus.iq.fu_full::IntDiv               0      0.00%      5.87% # attempts to use FU when none available
system.switch_cpus.iq.fu_full::FloatAdd             0      0.00%      5.87% # attempts to use FU when none available
system.switch_cpus.iq.fu_full::FloatCmp             0      0.00%      5.87% # attempts to use FU when none available
system.switch_cpus.iq.fu_full::FloatCvt             0      0.00%      5.87% # attempts to use FU when none available
system.switch_cpus.iq.fu_full::FloatMult            0      0.00%      5.87% # attempts to use FU when none available
system.switch_cpus.iq.fu_full::FloatMultAcc            0      0.00%      5.87% # attempts to use FU when none available
system.switch_cpus.iq.fu_full::FloatDiv             0      0.00%      5.87% # attempts to use FU when none available
system.switch_cpus.iq.fu_full::FloatMisc            0      0.00%      5.87% # attempts to use FU when none available
system.switch_cpus.iq.fu_full::FloatSqrt            0      0.00%      5.87% # attempts to use FU when none available
system.switch_cpus.iq.fu_full::SimdAdd              0      0.00%      5.87% # attempts to use FU when none available
system.switch_cpus.iq.fu_full::SimdAddAcc            0      0.00%      5.87% # attempts to use FU when none available
system.switch_cpus.iq.fu_full::SimdAlu            437      0.01%      5.88% # attempts to use FU when none available
system.switch_cpus.iq.fu_full::SimdCmp              0      0.00%      5.88% # attempts to use FU when none available
system.switch_cpus.iq.fu_full::SimdCvt              0      0.00%      5.88% # attempts to use FU when none available
system.switch_cpus.iq.fu_full::SimdMisc           322      0.01%      5.89% # attempts to use FU when none available
system.switch_cpus.iq.fu_full::SimdMult             0      0.00%      5.89% # attempts to use FU when none available
system.switch_cpus.iq.fu_full::SimdMultAcc            0      0.00%      5.89% # attempts to use FU when none available
system.switch_cpus.iq.fu_full::SimdShift            0      0.00%      5.89% # attempts to use FU when none available
system.switch_cpus.iq.fu_full::SimdShiftAcc            0      0.00%      5.89% # attempts to use FU when none available
system.switch_cpus.iq.fu_full::SimdDiv              0      0.00%      5.89% # attempts to use FU when none available
system.switch_cpus.iq.fu_full::SimdSqrt             0      0.00%      5.89% # attempts to use FU when none available
system.switch_cpus.iq.fu_full::SimdFloatAdd            0      0.00%      5.89% # attempts to use FU when none available
system.switch_cpus.iq.fu_full::SimdFloatAlu            0      0.00%      5.89% # attempts to use FU when none available
system.switch_cpus.iq.fu_full::SimdFloatCmp            0      0.00%      5.89% # attempts to use FU when none available
system.switch_cpus.iq.fu_full::SimdFloatCvt            0      0.00%      5.89% # attempts to use FU when none available
system.switch_cpus.iq.fu_full::SimdFloatDiv            0      0.00%      5.89% # attempts to use FU when none available
system.switch_cpus.iq.fu_full::SimdFloatMisc            0      0.00%      5.89% # attempts to use FU when none available
system.switch_cpus.iq.fu_full::SimdFloatMult            0      0.00%      5.89% # attempts to use FU when none available
system.switch_cpus.iq.fu_full::SimdFloatMultAcc            0      0.00%      5.89% # attempts to use FU when none available
system.switch_cpus.iq.fu_full::SimdFloatSqrt            0      0.00%      5.89% # attempts to use FU when none available
system.switch_cpus.iq.fu_full::SimdReduceAdd            0      0.00%      5.89% # attempts to use FU when none available
system.switch_cpus.iq.fu_full::SimdReduceAlu            0      0.00%      5.89% # attempts to use FU when none available
system.switch_cpus.iq.fu_full::SimdReduceCmp            0      0.00%      5.89% # attempts to use FU when none available
system.switch_cpus.iq.fu_full::SimdFloatReduceAdd            0      0.00%      5.89% # attempts to use FU when none available
system.switch_cpus.iq.fu_full::SimdFloatReduceCmp            0      0.00%      5.89% # attempts to use FU when none available
system.switch_cpus.iq.fu_full::SimdAes              0      0.00%      5.89% # attempts to use FU when none available
system.switch_cpus.iq.fu_full::SimdAesMix            0      0.00%      5.89% # attempts to use FU when none available
system.switch_cpus.iq.fu_full::SimdSha1Hash            0      0.00%      5.89% # attempts to use FU when none available
system.switch_cpus.iq.fu_full::SimdSha1Hash2            0      0.00%      5.89% # attempts to use FU when none available
system.switch_cpus.iq.fu_full::SimdSha256Hash            0      0.00%      5.89% # attempts to use FU when none available
system.switch_cpus.iq.fu_full::SimdSha256Hash2            0      0.00%      5.89% # attempts to use FU when none available
system.switch_cpus.iq.fu_full::SimdShaSigma2            0      0.00%      5.89% # attempts to use FU when none available
system.switch_cpus.iq.fu_full::SimdShaSigma3            0      0.00%      5.89% # attempts to use FU when none available
system.switch_cpus.iq.fu_full::SimdPredAlu            0      0.00%      5.89% # attempts to use FU when none available
system.switch_cpus.iq.fu_full::MemRead         202680      6.54%     12.43% # attempts to use FU when none available
system.switch_cpus.iq.fu_full::MemWrite        473000     15.26%     27.70% # attempts to use FU when none available
system.switch_cpus.iq.fu_full::FloatMemRead      1664494     53.71%     81.41% # attempts to use FU when none available
system.switch_cpus.iq.fu_full::FloatMemWrite       576186     18.59%    100.00% # attempts to use FU when none available
system.switch_cpus.iq.fu_full::IprAccess            0      0.00%    100.00% # attempts to use FU when none available
system.switch_cpus.iq.fu_full::InstPrefetch            0      0.00%    100.00% # attempts to use FU when none available
system.switch_cpus.iq.int_alu_accesses       34707033                       # Number of integer alu accesses
system.switch_cpus.iq.int_inst_queue_reads    118952327                       # Number of integer instruction queue reads
system.switch_cpus.iq.int_inst_queue_wakeup_accesses     33347478                       # Number of integer instruction queue wakeup accesses
system.switch_cpus.iq.int_inst_queue_writes     64967492                       # Number of integer instruction queue writes
system.switch_cpus.iq.iqInstsAdded           60804412                       # Number of instructions added to the IQ (excludes non-spec)
system.switch_cpus.iq.iqInstsIssued          57700654                       # Number of instructions issued
system.switch_cpus.iq.iqNonSpecInstsAdded       286291                       # Number of non-speculative instructions added to the IQ
system.switch_cpus.iq.iqSquashedInstsExamined     42241443                       # Number of squashed instructions iterated over during squash; mainly for profiling
system.switch_cpus.iq.iqSquashedInstsIssued        60182                       # Number of squashed instructions issued
system.switch_cpus.iq.iqSquashedNonSpecRemoved       262439                       # Number of squashed non-spec instructions that were removed
system.switch_cpus.iq.iqSquashedOperandsExamined     16667198                       # Number of squashed operands that are examined and possibly removed from graph
system.switch_cpus.iq.issued_per_cycle::samples     43808126                       # Number of insts issued each cycle
system.switch_cpus.iq.issued_per_cycle::mean     1.317122                       # Number of insts issued each cycle
system.switch_cpus.iq.issued_per_cycle::stdev     2.370342                       # Number of insts issued each cycle
system.switch_cpus.iq.issued_per_cycle::underflows            0      0.00%      0.00% # Number of insts issued each cycle
system.switch_cpus.iq.issued_per_cycle::0     31156201     71.12%     71.12% # Number of insts issued each cycle
system.switch_cpus.iq.issued_per_cycle::1      1201640      2.74%     73.86% # Number of insts issued each cycle
system.switch_cpus.iq.issued_per_cycle::2      1660627      3.79%     77.65% # Number of insts issued each cycle
system.switch_cpus.iq.issued_per_cycle::3      1271101      2.90%     80.55% # Number of insts issued each cycle
system.switch_cpus.iq.issued_per_cycle::4      2015524      4.60%     85.16% # Number of insts issued each cycle
system.switch_cpus.iq.issued_per_cycle::5      1815241      4.14%     89.30% # Number of insts issued each cycle
system.switch_cpus.iq.issued_per_cycle::6      2173127      4.96%     94.26% # Number of insts issued each cycle
system.switch_cpus.iq.issued_per_cycle::7       929926      2.12%     96.38% # Number of insts issued each cycle
system.switch_cpus.iq.issued_per_cycle::8      1584739      3.62%    100.00% # Number of insts issued each cycle
system.switch_cpus.iq.issued_per_cycle::overflows            0      0.00%    100.00% # Number of insts issued each cycle
system.switch_cpus.iq.issued_per_cycle::min_value            0                       # Number of insts issued each cycle
system.switch_cpus.iq.issued_per_cycle::max_value            8                       # Number of insts issued each cycle
system.switch_cpus.iq.issued_per_cycle::total     43808126                       # Number of insts issued each cycle
system.switch_cpus.iq.rate                   1.316311                       # Inst issue rate
system.switch_cpus.iq.vec_alu_accesses              0                       # Number of vector alu accesses
system.switch_cpus.iq.vec_inst_queue_reads            0                       # Number of vector instruction queue reads
system.switch_cpus.iq.vec_inst_queue_wakeup_accesses            0                       # Number of vector instruction queue wakeup accesses
system.switch_cpus.iq.vec_inst_queue_writes            0                       # Number of vector instruction queue writes
system.switch_cpus.itb.rdAccesses                   0                       # TLB accesses on read requests
system.switch_cpus.itb.rdMisses                     0                       # TLB misses on read requests
system.switch_cpus.itb.wrAccesses             6314959                       # TLB accesses on write requests
system.switch_cpus.itb.wrMisses                   122                       # TLB misses on write requests
system.switch_cpus.memDep0.conflictingLoads        14348                       # Number of conflicting loads.
system.switch_cpus.memDep0.conflictingStores      3383171                       # Number of conflicting stores.
system.switch_cpus.memDep0.insertedLoads     12602002                       # Number of loads inserted to the mem dependence unit.
system.switch_cpus.memDep0.insertedStores     13733256                       # Number of stores inserted to the mem dependence unit.
system.switch_cpus.misc_regfile_reads        31198726                       # number of misc regfile reads
system.switch_cpus.misc_regfile_writes              1                       # number of misc regfile writes
system.switch_cpus.numCycles                 43835112                       # number of cpu cycles simulated
system.switch_cpus.numWorkItemsCompleted            0                       # number of work items this cpu completed
system.switch_cpus.numWorkItemsStarted              0                       # number of work items this cpu started
system.switch_cpus.rename.BlockCycles         8841446                       # Number of cycles rename is blocking
system.switch_cpus.rename.CommittedMaps      20372182                       # Number of HB maps that are committed
system.switch_cpus.rename.IQFullEvents         141863                       # Number of times rename has blocked due to IQ full
system.switch_cpus.rename.IdleCycles          4025262                       # Number of cycles rename is idle
system.switch_cpus.rename.LQFullEvents         472514                       # Number of times rename has blocked due to LQ full
system.switch_cpus.rename.ROBFullEvents          2569                       # Number of times rename has blocked due to ROB full
system.switch_cpus.rename.RenameLookups     155524687                       # Number of register rename lookups that rename has made
system.switch_cpus.rename.RenamedInsts       62310488                       # Number of instructions processed by rename
system.switch_cpus.rename.RenamedOperands     56532328                       # Number of destination operands rename has renamed
system.switch_cpus.rename.RunCycles           8764712                       # Number of cycles rename is running
system.switch_cpus.rename.SQFullEvents       21274447                       # Number of times rename has blocked due to SQ full
system.switch_cpus.rename.SquashCycles         389330                       # Number of cycles rename is squashing
system.switch_cpus.rename.UnblockCycles      21787367                       # Number of cycles rename is unblocking
system.switch_cpus.rename.UndoneMaps         36160048                       # Number of HB maps that are undone due to squashing
system.switch_cpus.rename.fp_rename_lookups     18820727                       # Number of floating rename lookups
system.switch_cpus.rename.int_rename_lookups     86157036                       # Number of integer rename lookups
system.switch_cpus.rename.serializeStallCycles            0                       # count of cycles rename stalled for serializing inst
system.switch_cpus.rename.serializingInsts            0                       # count of serializing insts renamed
system.switch_cpus.rename.skidInsts           5624482                       # count of insts added to the skid buffer
system.switch_cpus.rename.tempSerializingInsts            0                       # count of temporary serializing insts renamed
system.switch_cpus.rob.rob_reads             85014887                       # The number of ROB reads
system.switch_cpus.rob.rob_writes           108347998                       # The number of ROB writes
system.switch_cpus.timesIdled                     414                       # Number of times that the entire CPU went into an idle state and unscheduled itself
system.tol2bus.snoop_filter.hit_multi_requests            0                       # Number of requests hitting in the snoop filter with multiple (>1) holders of the requested data.
system.tol2bus.snoop_filter.hit_multi_snoops            0                       # Number of snoops hitting in the snoop filter with multiple (>1) holders of the requested data.
system.tol2bus.snoop_filter.hit_single_requests       252380                       # Number of requests hitting in the snoop filter with a single holder of the requested data.
system.tol2bus.snoop_filter.hit_single_snoops          596                       # Number of snoops hitting in the snoop filter with a single holder of the requested data.
system.tol2bus.snoop_filter.tot_requests       506143                       # Total number of requests made to the snoop filter.
system.tol2bus.snoop_filter.tot_snoops            596                       # Total number of snoops made to the snoop filter.
system.membus.pwrStateResidencyTicks::UNDEFINED 1774540425000                       # Cumulative time (in ticks) in various power states
system.membus.trans_dist::ReadResp             126921                       # Transaction distribution
system.membus.trans_dist::WritebackDirty       121850                       # Transaction distribution
system.membus.trans_dist::CleanEvict           122455                       # Transaction distribution
system.membus.trans_dist::ReadExReq            125939                       # Transaction distribution
system.membus.trans_dist::ReadExResp           125939                       # Transaction distribution
system.membus.trans_dist::ReadSharedReq        126921                       # Transaction distribution
system.membus.pkt_count_system.l2.mem_side::system.mem_ctrls.port       750025                       # Packet count per connected master and slave (bytes)
system.membus.pkt_count_system.l2.mem_side::total       750025                       # Packet count per connected master and slave (bytes)
system.membus.pkt_count::total                 750025                       # Packet count per connected master and slave (bytes)
system.membus.pkt_size_system.l2.mem_side::system.mem_ctrls.port     23981440                       # Cumulative packet size per connected master and slave (bytes)
system.membus.pkt_size_system.l2.mem_side::total     23981440                       # Cumulative packet size per connected master and slave (bytes)
system.membus.pkt_size::total                23981440                       # Cumulative packet size per connected master and slave (bytes)
system.membus.snoops                                0                       # Total snoops (count)
system.membus.snoopTraffic                          0                       # Total snoop traffic (bytes)
system.membus.snoop_fanout::samples            252860                       # Request fanout histogram
system.membus.snoop_fanout::mean                    0                       # Request fanout histogram
system.membus.snoop_fanout::stdev                   0                       # Request fanout histogram
system.membus.snoop_fanout::underflows              0      0.00%      0.00% # Request fanout histogram
system.membus.snoop_fanout::0                  252860    100.00%    100.00% # Request fanout histogram
system.membus.snoop_fanout::1                       0      0.00%    100.00% # Request fanout histogram
system.membus.snoop_fanout::overflows               0      0.00%    100.00% # Request fanout histogram
system.membus.snoop_fanout::min_value               0                       # Request fanout histogram
system.membus.snoop_fanout::max_value               0                       # Request fanout histogram
system.membus.snoop_fanout::total              252860                       # Request fanout histogram
system.membus.reqLayer2.occupancy          1011269000                       # Layer occupancy (ticks)
system.membus.reqLayer2.utilization               4.6                       # Layer utilization (%)
system.membus.respLayer1.occupancy         1317496500                       # Layer occupancy (ticks)
system.membus.respLayer1.utilization              6.0                       # Layer utilization (%)
system.switch_cpus.pwrStateResidencyTicks::OFF  21917566250                       # Cumulative time (in ticks) in various power states
system.switch_cpus.dtb.walker.pwrStateResidencyTicks::UNDEFINED 1774540425000                       # Cumulative time (in ticks) in various power states
system.switch_cpus.itb.walker.pwrStateResidencyTicks::UNDEFINED 1774540425000                       # Cumulative time (in ticks) in various power states
system.tol2bus.pwrStateResidencyTicks::UNDEFINED 1774540425000                       # Cumulative time (in ticks) in various power states
system.tol2bus.trans_dist::ReadResp            127820                       # Transaction distribution
system.tol2bus.trans_dist::WritebackDirty       247394                       # Transaction distribution
system.tol2bus.trans_dist::WritebackClean          612                       # Transaction distribution
system.tol2bus.trans_dist::CleanEvict          249075                       # Transaction distribution
system.tol2bus.trans_dist::ReadExReq           125942                       # Transaction distribution
system.tol2bus.trans_dist::ReadExResp          125942                       # Transaction distribution
system.tol2bus.trans_dist::ReadCleanReq           970                       # Transaction distribution
system.tol2bus.trans_dist::ReadSharedReq       126851                       # Transaction distribution
system.tol2bus.pkt_count_system.cpu.icache.mem_side::system.l2.cpu_side         2552                       # Packet count per connected master and slave (bytes)
system.tol2bus.pkt_count_system.cpu.dcache.mem_side::system.l2.cpu_side       757353                       # Packet count per connected master and slave (bytes)
system.tol2bus.pkt_count::total                759905                       # Packet count per connected master and slave (bytes)
system.tol2bus.pkt_size_system.cpu.icache.mem_side::system.l2.cpu_side       101248                       # Cumulative packet size per connected master and slave (bytes)
system.tol2bus.pkt_size_system.cpu.dcache.mem_side::system.l2.cpu_side     24213504                       # Cumulative packet size per connected master and slave (bytes)
system.tol2bus.pkt_size::total               24314752                       # Cumulative packet size per connected master and slave (bytes)
system.tol2bus.snoops                          244701                       # Total snoops (count)
system.tol2bus.snoopTraffic                   7798400                       # Total snoop traffic (bytes)
system.tol2bus.snoop_fanout::samples           498464                       # Request fanout histogram
system.tol2bus.snoop_fanout::mean            0.001196                       # Request fanout histogram
system.tol2bus.snoop_fanout::stdev           0.034558                       # Request fanout histogram
system.tol2bus.snoop_fanout::underflows             0      0.00%      0.00% # Request fanout histogram
system.tol2bus.snoop_fanout::0                 497868     99.88%     99.88% # Request fanout histogram
system.tol2bus.snoop_fanout::1                    596      0.12%    100.00% # Request fanout histogram
system.tol2bus.snoop_fanout::2                      0      0.00%    100.00% # Request fanout histogram
system.tol2bus.snoop_fanout::3                      0      0.00%    100.00% # Request fanout histogram
system.tol2bus.snoop_fanout::4                      0      0.00%    100.00% # Request fanout histogram
system.tol2bus.snoop_fanout::overflows              0      0.00%    100.00% # Request fanout histogram
system.tol2bus.snoop_fanout::min_value              0                       # Request fanout histogram
system.tol2bus.snoop_fanout::max_value              1                       # Request fanout histogram
system.tol2bus.snoop_fanout::total             498464                       # Request fanout histogram
system.tol2bus.reqLayer0.occupancy          379225500                       # Layer occupancy (ticks)
system.tol2bus.reqLayer0.utilization              1.7                       # Layer utilization (%)
system.tol2bus.respLayer1.occupancy         379185000                       # Layer occupancy (ticks)
system.tol2bus.respLayer1.utilization             1.7                       # Layer utilization (%)
system.tol2bus.respLayer0.occupancy           1452000                       # Layer occupancy (ticks)
system.tol2bus.respLayer0.utilization             0.0                       # Layer utilization (%)
system.voltage_domain.voltage                       1                       # Voltage in Volts
system.clk_domain.clock                          1000                       # Clock period in ticks
system.l2.pwrStateResidencyTicks::UNDEFINED 1774540425000                       # Cumulative time (in ticks) in various power states
system.l2.demand_hits::.switch_cpus.inst          573                       # number of demand (read+write) hits
system.l2.demand_hits::.switch_cpus.data          330                       # number of demand (read+write) hits
system.l2.demand_hits::total                      903                       # number of demand (read+write) hits
system.l2.overall_hits::.switch_cpus.inst          573                       # number of overall hits
system.l2.overall_hits::.switch_cpus.data          330                       # number of overall hits
system.l2.overall_hits::total                     903                       # number of overall hits
system.l2.demand_misses::.cpu.inst                  2                       # number of demand (read+write) misses
system.l2.demand_misses::.cpu.data                  2                       # number of demand (read+write) misses
system.l2.demand_misses::.switch_cpus.inst          395                       # number of demand (read+write) misses
system.l2.demand_misses::.switch_cpus.data       252461                       # number of demand (read+write) misses
system.l2.demand_misses::total                 252860                       # number of demand (read+write) misses
system.l2.overall_misses::.cpu.inst                 2                       # number of overall misses
system.l2.overall_misses::.cpu.data                 2                       # number of overall misses
system.l2.overall_misses::.switch_cpus.inst          395                       # number of overall misses
system.l2.overall_misses::.switch_cpus.data       252461                       # number of overall misses
system.l2.overall_misses::total                252860                       # number of overall misses
system.l2.demand_miss_latency::.switch_cpus.inst     33779000                       # number of demand (read+write) miss cycles
system.l2.demand_miss_latency::.switch_cpus.data  20649157000                       # number of demand (read+write) miss cycles
system.l2.demand_miss_latency::total      20682936000                       # number of demand (read+write) miss cycles
system.l2.overall_miss_latency::.switch_cpus.inst     33779000                       # number of overall miss cycles
system.l2.overall_miss_latency::.switch_cpus.data  20649157000                       # number of overall miss cycles
system.l2.overall_miss_latency::total     20682936000                       # number of overall miss cycles
system.l2.demand_accesses::.cpu.inst                2                       # number of demand (read+write) accesses
system.l2.demand_accesses::.cpu.data                2                       # number of demand (read+write) accesses
system.l2.demand_accesses::.switch_cpus.inst          968                       # number of demand (read+write) accesses
system.l2.demand_accesses::.switch_cpus.data       252791                       # number of demand (read+write) accesses
system.l2.demand_accesses::total               253763                       # number of demand (read+write) accesses
system.l2.overall_accesses::.cpu.inst               2                       # number of overall (read+write) accesses
system.l2.overall_accesses::.cpu.data               2                       # number of overall (read+write) accesses
system.l2.overall_accesses::.switch_cpus.inst          968                       # number of overall (read+write) accesses
system.l2.overall_accesses::.switch_cpus.data       252791                       # number of overall (read+write) accesses
system.l2.overall_accesses::total              253763                       # number of overall (read+write) accesses
system.l2.demand_miss_rate::.cpu.inst               1                       # miss rate for demand accesses
system.l2.demand_miss_rate::.cpu.data               1                       # miss rate for demand accesses
system.l2.demand_miss_rate::.switch_cpus.inst     0.408058                       # miss rate for demand accesses
system.l2.demand_miss_rate::.switch_cpus.data     0.998695                       # miss rate for demand accesses
system.l2.demand_miss_rate::total            0.996442                       # miss rate for demand accesses
system.l2.overall_miss_rate::.cpu.inst              1                       # miss rate for overall accesses
system.l2.overall_miss_rate::.cpu.data              1                       # miss rate for overall accesses
system.l2.overall_miss_rate::.switch_cpus.inst     0.408058                       # miss rate for overall accesses
system.l2.overall_miss_rate::.switch_cpus.data     0.998695                       # miss rate for overall accesses
system.l2.overall_miss_rate::total           0.996442                       # miss rate for overall accesses
system.l2.demand_avg_miss_latency::.switch_cpus.inst 85516.455696                       # average overall miss latency
system.l2.demand_avg_miss_latency::.switch_cpus.data 81791.472742                       # average overall miss latency
system.l2.demand_avg_miss_latency::total 81795.997785                       # average overall miss latency
system.l2.overall_avg_miss_latency::.switch_cpus.inst 85516.455696                       # average overall miss latency
system.l2.overall_avg_miss_latency::.switch_cpus.data 81791.472742                       # average overall miss latency
system.l2.overall_avg_miss_latency::total 81795.997785                       # average overall miss latency
system.l2.blocked_cycles::no_mshrs                  0                       # number of cycles access was blocked
system.l2.blocked_cycles::no_targets                0                       # number of cycles access was blocked
system.l2.blocked::no_mshrs                         0                       # number of cycles access was blocked
system.l2.blocked::no_targets                       0                       # number of cycles access was blocked
system.l2.avg_blocked_cycles::no_mshrs            nan                       # average number of cycles each access was blocked
system.l2.avg_blocked_cycles::no_targets          nan                       # average number of cycles each access was blocked
system.l2.writebacks::.writebacks              121850                       # number of writebacks
system.l2.writebacks::total                    121850                       # number of writebacks
system.l2.demand_mshr_misses::.switch_cpus.inst          395                       # number of demand (read+write) MSHR misses
system.l2.demand_mshr_misses::.switch_cpus.data       252461                       # number of demand (read+write) MSHR misses
system.l2.demand_mshr_misses::total            252856                       # number of demand (read+write) MSHR misses
system.l2.overall_mshr_misses::.switch_cpus.inst          395                       # number of overall MSHR misses
system.l2.overall_mshr_misses::.switch_cpus.data       252461                       # number of overall MSHR misses
system.l2.overall_mshr_misses::total           252856                       # number of overall MSHR misses
system.l2.demand_mshr_miss_latency::.switch_cpus.inst     29829000                       # number of demand (read+write) MSHR miss cycles
system.l2.demand_mshr_miss_latency::.switch_cpus.data  18124547000                       # number of demand (read+write) MSHR miss cycles
system.l2.demand_mshr_miss_latency::total  18154376000                       # number of demand (read+write) MSHR miss cycles
system.l2.overall_mshr_miss_latency::.switch_cpus.inst     29829000                       # number of overall MSHR miss cycles
system.l2.overall_mshr_miss_latency::.switch_cpus.data  18124547000                       # number of overall MSHR miss cycles
system.l2.overall_mshr_miss_latency::total  18154376000                       # number of overall MSHR miss cycles
system.l2.demand_mshr_miss_rate::.switch_cpus.inst     0.408058                       # mshr miss rate for demand accesses
system.l2.demand_mshr_miss_rate::.switch_cpus.data     0.998695                       # mshr miss rate for demand accesses
system.l2.demand_mshr_miss_rate::total       0.996426                       # mshr miss rate for demand accesses
system.l2.overall_mshr_miss_rate::.switch_cpus.inst     0.408058                       # mshr miss rate for overall accesses
system.l2.overall_mshr_miss_rate::.switch_cpus.data     0.998695                       # mshr miss rate for overall accesses
system.l2.overall_mshr_miss_rate::total      0.996426                       # mshr miss rate for overall accesses
system.l2.demand_avg_mshr_miss_latency::.switch_cpus.inst 75516.455696                       # average overall mshr miss latency
system.l2.demand_avg_mshr_miss_latency::.switch_cpus.data 71791.472742                       # average overall mshr miss latency
system.l2.demand_avg_mshr_miss_latency::total 71797.291739                       # average overall mshr miss latency
system.l2.overall_avg_mshr_miss_latency::.switch_cpus.inst 75516.455696                       # average overall mshr miss latency
system.l2.overall_avg_mshr_miss_latency::.switch_cpus.data 71791.472742                       # average overall mshr miss latency
system.l2.overall_avg_mshr_miss_latency::total 71797.291739                       # average overall mshr miss latency
system.l2.replacements                         244701                       # number of replacements
system.l2.WritebackDirty_hits::.writebacks       125544                       # number of WritebackDirty hits
system.l2.WritebackDirty_hits::total           125544                       # number of WritebackDirty hits
system.l2.WritebackDirty_accesses::.writebacks       125544                       # number of WritebackDirty accesses(hits+misses)
system.l2.WritebackDirty_accesses::total       125544                       # number of WritebackDirty accesses(hits+misses)
system.l2.WritebackClean_hits::.writebacks          612                       # number of WritebackClean hits
system.l2.WritebackClean_hits::total              612                       # number of WritebackClean hits
system.l2.WritebackClean_accesses::.writebacks          612                       # number of WritebackClean accesses(hits+misses)
system.l2.WritebackClean_accesses::total          612                       # number of WritebackClean accesses(hits+misses)
system.l2.CleanEvict_mshr_misses::.writebacks          201                       # number of CleanEvict MSHR misses
system.l2.CleanEvict_mshr_misses::total           201                       # number of CleanEvict MSHR misses
system.l2.CleanEvict_mshr_miss_rate::.writebacks          inf                       # mshr miss rate for CleanEvict accesses
system.l2.CleanEvict_mshr_miss_rate::total          inf                       # mshr miss rate for CleanEvict accesses
system.l2.ReadExReq_hits::.switch_cpus.data            3                       # number of ReadExReq hits
system.l2.ReadExReq_hits::total                     3                       # number of ReadExReq hits
system.l2.ReadExReq_misses::.switch_cpus.data       125939                       # number of ReadExReq misses
system.l2.ReadExReq_misses::total              125939                       # number of ReadExReq misses
system.l2.ReadExReq_miss_latency::.switch_cpus.data  10011642500                       # number of ReadExReq miss cycles
system.l2.ReadExReq_miss_latency::total   10011642500                       # number of ReadExReq miss cycles
system.l2.ReadExReq_accesses::.switch_cpus.data       125942                       # number of ReadExReq accesses(hits+misses)
system.l2.ReadExReq_accesses::total            125942                       # number of ReadExReq accesses(hits+misses)
system.l2.ReadExReq_miss_rate::.switch_cpus.data     0.999976                       # miss rate for ReadExReq accesses
system.l2.ReadExReq_miss_rate::total         0.999976                       # miss rate for ReadExReq accesses
system.l2.ReadExReq_avg_miss_latency::.switch_cpus.data 79495.966301                       # average ReadExReq miss latency
system.l2.ReadExReq_avg_miss_latency::total 79495.966301                       # average ReadExReq miss latency
system.l2.ReadExReq_mshr_misses::.switch_cpus.data       125939                       # number of ReadExReq MSHR misses
system.l2.ReadExReq_mshr_misses::total         125939                       # number of ReadExReq MSHR misses
system.l2.ReadExReq_mshr_miss_latency::.switch_cpus.data   8752252500                       # number of ReadExReq MSHR miss cycles
system.l2.ReadExReq_mshr_miss_latency::total   8752252500                       # number of ReadExReq MSHR miss cycles
system.l2.ReadExReq_mshr_miss_rate::.switch_cpus.data     0.999976                       # mshr miss rate for ReadExReq accesses
system.l2.ReadExReq_mshr_miss_rate::total     0.999976                       # mshr miss rate for ReadExReq accesses
system.l2.ReadExReq_avg_mshr_miss_latency::.switch_cpus.data 69495.966301                       # average ReadExReq mshr miss latency
system.l2.ReadExReq_avg_mshr_miss_latency::total 69495.966301                       # average ReadExReq mshr miss latency
system.l2.ReadCleanReq_hits::.switch_cpus.inst          573                       # number of ReadCleanReq hits
system.l2.ReadCleanReq_hits::total                573                       # number of ReadCleanReq hits
system.l2.ReadCleanReq_misses::.cpu.inst            2                       # number of ReadCleanReq misses
system.l2.ReadCleanReq_misses::.switch_cpus.inst          395                       # number of ReadCleanReq misses
system.l2.ReadCleanReq_misses::total              397                       # number of ReadCleanReq misses
system.l2.ReadCleanReq_miss_latency::.switch_cpus.inst     33779000                       # number of ReadCleanReq miss cycles
system.l2.ReadCleanReq_miss_latency::total     33779000                       # number of ReadCleanReq miss cycles
system.l2.ReadCleanReq_accesses::.cpu.inst            2                       # number of ReadCleanReq accesses(hits+misses)
system.l2.ReadCleanReq_accesses::.switch_cpus.inst          968                       # number of ReadCleanReq accesses(hits+misses)
system.l2.ReadCleanReq_accesses::total            970                       # number of ReadCleanReq accesses(hits+misses)
system.l2.ReadCleanReq_miss_rate::.cpu.inst            1                       # miss rate for ReadCleanReq accesses
system.l2.ReadCleanReq_miss_rate::.switch_cpus.inst     0.408058                       # miss rate for ReadCleanReq accesses
system.l2.ReadCleanReq_miss_rate::total      0.409278                       # miss rate for ReadCleanReq accesses
system.l2.ReadCleanReq_avg_miss_latency::.switch_cpus.inst 85516.455696                       # average ReadCleanReq miss latency
system.l2.ReadCleanReq_avg_miss_latency::total 85085.642317                       # average ReadCleanReq miss latency
[...]
system.cpu.itb_walker_cache.tags.tag_accesses            0                       # Number of tag accesses
system.cpu.itb_walker_cache.tags.data_accesses            0                       # Number of data accesses
system.cpu.itb.walker.pwrStateResidencyTicks::UNDEFINED 1804661057500                       # Cumulative time (in ticks) in various power states
system.cpu.dtb_walker_cache.pwrStateResidencyTicks::UNDEFINED 1804661057500                       # Cumulative time (in ticks) in various power states
system.cpu.dtb_walker_cache.blocked_cycles::no_mshrs            0                       # number of cycles access was blocked
system.cpu.dtb_walker_cache.blocked_cycles::no_targets            0                       # number of cycles access was blocked
system.cpu.dtb_walker_cache.blocked::no_mshrs            0                       # number of cycles access was blocked
system.cpu.dtb_walker_cache.blocked::no_targets            0                       # number of cycles access was blocked
system.cpu.dtb_walker_cache.avg_blocked_cycles::no_mshrs          nan                       # average number of cycles each access was blocked
system.cpu.dtb_walker_cache.avg_blocked_cycles::no_targets          nan                       # average number of cycles each access was blocked
system.cpu.dtb_walker_cache.replacements            0                       # number of replacements
system.cpu.dtb_walker_cache.tags.pwrStateResidencyTicks::UNDEFINED 1804661057500                       # Cumulative time (in ticks) in various power states
system.cpu.dtb_walker_cache.tags.tagsinuse            0                       # Cycle average of tags in use
system.cpu.dtb_walker_cache.tags.total_refs            0                       # Total number of references to valid blocks.
system.cpu.dtb_walker_cache.tags.sampled_refs            0                       # Sample count of references to valid blocks.
system.cpu.dtb_walker_cache.tags.avg_refs          nan                       # Average number of references to valid blocks.
system.cpu.dtb_walker_cache.tags.warmup_cycle            0                       # Cycle when the warmup percentage was hit.
system.cpu.dtb_walker_cache.tags.tag_accesses            0                       # Number of tag accesses
system.cpu.dtb_walker_cache.tags.data_accesses            0                       # Number of data accesses
system.cpu.dcache.pwrStateResidencyTicks::UNDEFINED 1804661057500                       # Cumulative time (in ticks) in various power states
system.cpu.dcache.demand_hits::.cpu.data            1                       # number of demand (read+write) hits
system.cpu.dcache.demand_hits::.switch_cpus.data     39433673                       # number of demand (read+write) hits
system.cpu.dcache.demand_hits::total         39433674                       # number of demand (read+write) hits
system.cpu.dcache.overall_hits::.cpu.data            1                       # number of overall hits
system.cpu.dcache.overall_hits::.switch_cpus.data     41251480                       # number of overall hits
system.cpu.dcache.overall_hits::total        41251481                       # number of overall hits
system.cpu.dcache.demand_misses::.cpu.data            2                       # number of demand (read+write) misses
system.cpu.dcache.demand_misses::.switch_cpus.data      1394152                       # number of demand (read+write) misses
system.cpu.dcache.demand_misses::total        1394154                       # number of demand (read+write) misses
system.cpu.dcache.overall_misses::.cpu.data            2                       # number of overall misses
system.cpu.dcache.overall_misses::.switch_cpus.data      1518463                       # number of overall misses
system.cpu.dcache.overall_misses::total       1518465                       # number of overall misses
system.cpu.dcache.demand_miss_latency::.switch_cpus.data 101976146570                       # number of demand (read+write) miss cycles
system.cpu.dcache.demand_miss_latency::total 101976146570                       # number of demand (read+write) miss cycles
system.cpu.dcache.overall_miss_latency::.switch_cpus.data 101976146570                       # number of overall miss cycles
system.cpu.dcache.overall_miss_latency::total 101976146570                       # number of overall miss cycles
system.cpu.dcache.demand_accesses::.cpu.data            3                       # number of demand (read+write) accesses
system.cpu.dcache.demand_accesses::.switch_cpus.data     40827825                       # number of demand (read+write) accesses
system.cpu.dcache.demand_accesses::total     40827828                       # number of demand (read+write) accesses
system.cpu.dcache.overall_accesses::.cpu.data            3                       # number of overall (read+write) accesses
system.cpu.dcache.overall_accesses::.switch_cpus.data     42769943                       # number of overall (read+write) accesses
system.cpu.dcache.overall_accesses::total     42769946                       # number of overall (read+write) accesses
system.cpu.dcache.demand_miss_rate::.cpu.data     0.666667                       # miss rate for demand accesses
system.cpu.dcache.demand_miss_rate::.switch_cpus.data     0.034147                       # miss rate for demand accesses
system.cpu.dcache.demand_miss_rate::total     0.034147                       # miss rate for demand accesses
system.cpu.dcache.overall_miss_rate::.cpu.data     0.666667                       # miss rate for overall accesses
system.cpu.dcache.overall_miss_rate::.switch_cpus.data     0.035503                       # miss rate for overall accesses
system.cpu.dcache.overall_miss_rate::total     0.035503                       # miss rate for overall accesses
system.cpu.dcache.demand_avg_miss_latency::.switch_cpus.data 73145.644499                       # average overall miss latency
system.cpu.dcache.demand_avg_miss_latency::total 73145.539567                       # average overall miss latency
system.cpu.dcache.overall_avg_miss_latency::.switch_cpus.data 67157.478694                       # average overall miss latency
system.cpu.dcache.overall_avg_miss_latency::total 67157.390239                       # average overall miss latency
system.cpu.dcache.blocked_cycles::no_mshrs      9699290                       # number of cycles access was blocked
system.cpu.dcache.blocked_cycles::no_targets        22771                       # number of cycles access was blocked
system.cpu.dcache.blocked::no_mshrs            114891                       # number of cycles access was blocked
system.cpu.dcache.blocked::no_targets             306                       # number of cycles access was blocked
system.cpu.dcache.avg_blocked_cycles::no_mshrs    84.421669                       # average number of cycles each access was blocked
system.cpu.dcache.avg_blocked_cycles::no_targets    74.415033                       # average number of cycles each access was blocked
system.cpu.dcache.writebacks::.writebacks       319477                       # number of writebacks
system.cpu.dcache.writebacks::total            319477                       # number of writebacks
system.cpu.dcache.demand_mshr_hits::.switch_cpus.data       762854                       # number of demand (read+write) MSHR hits
system.cpu.dcache.demand_mshr_hits::total       762854                       # number of demand (read+write) MSHR hits
system.cpu.dcache.overall_mshr_hits::.switch_cpus.data       762854                       # number of overall MSHR hits
system.cpu.dcache.overall_mshr_hits::total       762854                       # number of overall MSHR hits
system.cpu.dcache.demand_mshr_misses::.switch_cpus.data       631298                       # number of demand (read+write) MSHR misses
system.cpu.dcache.demand_mshr_misses::total       631298                       # number of demand (read+write) MSHR misses
system.cpu.dcache.overall_mshr_misses::.switch_cpus.data       692815                       # number of overall MSHR misses
system.cpu.dcache.overall_mshr_misses::total       692815                       # number of overall MSHR misses
system.cpu.dcache.demand_mshr_miss_latency::.switch_cpus.data  50425137070                       # number of demand (read+write) MSHR miss cycles
system.cpu.dcache.demand_mshr_miss_latency::total  50425137070                       # number of demand (read+write) MSHR miss cycles
system.cpu.dcache.overall_mshr_miss_latency::.switch_cpus.data  56100444070                       # number of overall MSHR miss cycles
system.cpu.dcache.overall_mshr_miss_latency::total  56100444070                       # number of overall MSHR miss cycles
system.cpu.dcache.demand_mshr_miss_rate::.switch_cpus.data     0.015462                       # mshr miss rate for demand accesses
system.cpu.dcache.demand_mshr_miss_rate::total     0.015462                       # mshr miss rate for demand accesses
system.cpu.dcache.overall_mshr_miss_rate::.switch_cpus.data     0.016199                       # mshr miss rate for overall accesses
system.cpu.dcache.overall_mshr_miss_rate::total     0.016199                       # mshr miss rate for overall accesses
system.cpu.dcache.demand_avg_mshr_miss_latency::.switch_cpus.data 79875.331571                       # average overall mshr miss latency
system.cpu.dcache.demand_avg_mshr_miss_latency::total 79875.331571                       # average overall mshr miss latency
system.cpu.dcache.overall_avg_mshr_miss_latency::.switch_cpus.data 80974.638352                       # average overall mshr miss latency
system.cpu.dcache.overall_avg_mshr_miss_latency::total 80974.638352                       # average overall mshr miss latency
system.cpu.dcache.replacements                 691789                       # number of replacements
system.cpu.dcache.ReadReq_hits::.cpu.data            1                       # number of ReadReq hits
system.cpu.dcache.ReadReq_hits::.switch_cpus.data     30927780                       # number of ReadReq hits
system.cpu.dcache.ReadReq_hits::total        30927781                       # number of ReadReq hits
system.cpu.dcache.ReadReq_misses::.cpu.data            2                       # number of ReadReq misses
system.cpu.dcache.ReadReq_misses::.switch_cpus.data      1105250                       # number of ReadReq misses
system.cpu.dcache.ReadReq_misses::total       1105252                       # number of ReadReq misses
system.cpu.dcache.ReadReq_miss_latency::.switch_cpus.data  78610002000                       # number of ReadReq miss cycles
system.cpu.dcache.ReadReq_miss_latency::total  78610002000                       # number of ReadReq miss cycles
system.cpu.dcache.ReadReq_accesses::.cpu.data            3                       # number of ReadReq accesses(hits+misses)
system.cpu.dcache.ReadReq_accesses::.switch_cpus.data     32033030                       # number of ReadReq accesses(hits+misses)
system.cpu.dcache.ReadReq_accesses::total     32033033                       # number of ReadReq accesses(hits+misses)
system.cpu.dcache.ReadReq_miss_rate::.cpu.data     0.666667                       # miss rate for ReadReq accesses
system.cpu.dcache.ReadReq_miss_rate::.switch_cpus.data     0.034503                       # miss rate for ReadReq accesses
system.cpu.dcache.ReadReq_miss_rate::total     0.034504                       # miss rate for ReadReq accesses
system.cpu.dcache.ReadReq_avg_miss_latency::.switch_cpus.data 71124.181859                       # average ReadReq miss latency
system.cpu.dcache.ReadReq_avg_miss_latency::total 71124.053157                       # average ReadReq miss latency
system.cpu.dcache.ReadReq_mshr_hits::.switch_cpus.data       762778                       # number of ReadReq MSHR hits
system.cpu.dcache.ReadReq_mshr_hits::total       762778                       # number of ReadReq MSHR hits
system.cpu.dcache.ReadReq_mshr_misses::.switch_cpus.data       342472                       # number of ReadReq MSHR misses
system.cpu.dcache.ReadReq_mshr_misses::total       342472                       # number of ReadReq MSHR misses
system.cpu.dcache.ReadReq_mshr_miss_latency::.switch_cpus.data  27349131500                       # number of ReadReq MSHR miss cycles
system.cpu.dcache.ReadReq_mshr_miss_latency::total  27349131500                       # number of ReadReq MSHR miss cycles
system.cpu.dcache.ReadReq_mshr_miss_rate::.switch_cpus.data     0.010691                       # mshr miss rate for ReadReq accesses
system.cpu.dcache.ReadReq_mshr_miss_rate::total     0.010691                       # mshr miss rate for ReadReq accesses
system.cpu.dcache.ReadReq_avg_mshr_miss_latency::.switch_cpus.data 79858.007370                       # average ReadReq mshr miss latency
system.cpu.dcache.ReadReq_avg_mshr_miss_latency::total 79858.007370                       # average ReadReq mshr miss latency
system.cpu.dcache.WriteReq_hits::.switch_cpus.data      8505893                       # number of WriteReq hits
system.cpu.dcache.WriteReq_hits::total        8505893                       # number of WriteReq hits
system.cpu.dcache.WriteReq_misses::.switch_cpus.data       288902                       # number of WriteReq misses
system.cpu.dcache.WriteReq_misses::total       288902                       # number of WriteReq misses
system.cpu.dcache.WriteReq_miss_latency::.switch_cpus.data  23366144570                       # number of WriteReq miss cycles
system.cpu.dcache.WriteReq_miss_latency::total  23366144570                       # number of WriteReq miss cycles
system.cpu.dcache.WriteReq_accesses::.switch_cpus.data      8794795                       # number of WriteReq accesses(hits+misses)
system.cpu.dcache.WriteReq_accesses::total      8794795                       # number of WriteReq accesses(hits+misses)
system.cpu.dcache.WriteReq_miss_rate::.switch_cpus.data     0.032849                       # miss rate for WriteReq accesses
system.cpu.dcache.WriteReq_miss_rate::total     0.032849                       # miss rate for WriteReq accesses
system.cpu.dcache.WriteReq_avg_miss_latency::.switch_cpus.data 80879.137458                       # average WriteReq miss latency
system.cpu.dcache.WriteReq_avg_miss_latency::total 80879.137458                       # average WriteReq miss latency
system.cpu.dcache.WriteReq_mshr_hits::.switch_cpus.data           76                       # number of WriteReq MSHR hits
system.cpu.dcache.WriteReq_mshr_hits::total           76                       # number of WriteReq MSHR hits
system.cpu.dcache.WriteReq_mshr_misses::.switch_cpus.data       288826                       # number of WriteReq MSHR misses
system.cpu.dcache.WriteReq_mshr_misses::total       288826                       # number of WriteReq MSHR misses
system.cpu.dcache.WriteReq_mshr_miss_latency::.switch_cpus.data  23076005570                       # number of WriteReq MSHR miss cycles
system.cpu.dcache.WriteReq_mshr_miss_latency::total  23076005570                       # number of WriteReq MSHR miss cycles
system.cpu.dcache.WriteReq_mshr_miss_rate::.switch_cpus.data     0.032841                       # mshr miss rate for WriteReq accesses
system.cpu.dcache.WriteReq_mshr_miss_rate::total     0.032841                       # mshr miss rate for WriteReq accesses
system.cpu.dcache.WriteReq_avg_mshr_miss_latency::.switch_cpus.data 79895.873536                       # average WriteReq mshr miss latency
system.cpu.dcache.WriteReq_avg_mshr_miss_latency::total 79895.873536                       # average WriteReq mshr miss latency
system.cpu.dcache.SoftPFReq_hits::.switch_cpus.data      1817807                       # number of SoftPFReq hits
system.cpu.dcache.SoftPFReq_hits::total       1817807                       # number of SoftPFReq hits
system.cpu.dcache.SoftPFReq_misses::.switch_cpus.data       124311                       # number of SoftPFReq misses
system.cpu.dcache.SoftPFReq_misses::total       124311                       # number of SoftPFReq misses
system.cpu.dcache.SoftPFReq_accesses::.switch_cpus.data      1942118                       # number of SoftPFReq accesses(hits+misses)
system.cpu.dcache.SoftPFReq_accesses::total      1942118                       # number of SoftPFReq accesses(hits+misses)
system.cpu.dcache.SoftPFReq_miss_rate::.switch_cpus.data     0.064008                       # miss rate for SoftPFReq accesses
system.cpu.dcache.SoftPFReq_miss_rate::total     0.064008                       # miss rate for SoftPFReq accesses
system.cpu.dcache.SoftPFReq_mshr_misses::.switch_cpus.data        61517                       # number of SoftPFReq MSHR misses
system.cpu.dcache.SoftPFReq_mshr_misses::total        61517                       # number of SoftPFReq MSHR misses
system.cpu.dcache.SoftPFReq_mshr_miss_latency::.switch_cpus.data   5675307000                       # number of SoftPFReq MSHR miss cycles
system.cpu.dcache.SoftPFReq_mshr_miss_latency::total   5675307000                       # number of SoftPFReq MSHR miss cycles
system.cpu.dcache.SoftPFReq_mshr_miss_rate::.switch_cpus.data     0.031675                       # mshr miss rate for SoftPFReq accesses
system.cpu.dcache.SoftPFReq_mshr_miss_rate::total     0.031675                       # mshr miss rate for SoftPFReq accesses
system.cpu.dcache.SoftPFReq_avg_mshr_miss_latency::.switch_cpus.data 92255.913000                       # average SoftPFReq mshr miss latency
system.cpu.dcache.SoftPFReq_avg_mshr_miss_latency::total 92255.913000                       # average SoftPFReq mshr miss latency
system.cpu.dcache.tags.pwrStateResidencyTicks::UNDEFINED 1804661057500                       # Cumulative time (in ticks) in various power states
system.cpu.dcache.tags.tagsinuse            29.492612                       # Cycle average of tags in use
system.cpu.dcache.tags.total_refs            41944298                       # Total number of references to valid blocks.
system.cpu.dcache.tags.sampled_refs            692813                       # Sample count of references to valid blocks.
system.cpu.dcache.tags.avg_refs             60.542019                       # Average number of references to valid blocks.
system.cpu.dcache.tags.warmup_cycle      1752622860500                       # Cycle when the warmup percentage was hit.
system.cpu.dcache.tags.occ_blocks::.cpu.data     0.002221                       # Average occupied blocks per requestor
system.cpu.dcache.tags.occ_blocks::.switch_cpus.data    29.490391                       # Average occupied blocks per requestor
system.cpu.dcache.tags.occ_percent::.cpu.data     0.000002                       # Average percentage of cache occupancy
system.cpu.dcache.tags.occ_percent::.switch_cpus.data     0.028799                       # Average percentage of cache occupancy
system.cpu.dcache.tags.occ_percent::total     0.028801                       # Average percentage of cache occupancy
system.cpu.dcache.tags.occ_task_id_blocks::1024         1024                       # Occupied blocks per task id
system.cpu.dcache.tags.age_task_id_blocks_1024::0          120                       # Occupied blocks per task id
system.cpu.dcache.tags.age_task_id_blocks_1024::1          792                       # Occupied blocks per task id
system.cpu.dcache.tags.age_task_id_blocks_1024::2          103                       # Occupied blocks per task id
system.cpu.dcache.tags.age_task_id_blocks_1024::3            9                       # Occupied blocks per task id
system.cpu.dcache.tags.occ_task_id_percent::1024            1                       # Percentage of cache occupancy per task id
system.cpu.dcache.tags.tag_accesses          86232705                       # Number of tag accesses
system.cpu.dcache.tags.data_accesses         86232705                       # Number of data accesses

---------- End Simulation Statistics   ----------
