
---------- Begin Simulation Statistics ----------
final_tick                               448280811290500                       # Number of ticks from beginning of simulation (restored from checkpoints and never reset)
host_inst_rate                                  53219                       # Simulator instruction rate (inst/s)
host_mem_usage                                 829792                       # Number of bytes of host memory used
host_op_rate                                   108617                       # Simulator op (including micro ops) rate (op/s)
host_seconds                                   187.90                       # Real time elapsed on the host
host_tick_rate                               37020314                       # Simulator tick rate (ticks/s)
sim_freq                                 1000000000000                       # Frequency of simulated ticks
sim_insts                                    10000009                       # Number of instructions simulated
sim_ops                                      20409603                       # Number of ops (including micro ops) simulated
sim_seconds                                  0.006956                       # Number of seconds simulated
sim_ticks                                  6956250500                       # Number of ticks simulated
system.cpu.Branches                                 2                       # Number of branches fetched
system.cpu.committedInsts                           8                       # Number of instructions committed
system.cpu.committedOps                            16                       # Number of ops (including micro ops) committed
system.cpu.dtb.rdAccesses                           4                       # TLB accesses on read requests
system.cpu.dtb.rdMisses                             0                       # TLB misses on read requests
system.cpu.dtb.wrAccesses                           0                       # TLB accesses on write requests
system.cpu.dtb.wrMisses                             0                       # TLB misses on write requests
system.cpu.idle_fraction                            0                       # Percentage of idle cycles
system.cpu.itb.rdAccesses                           0                       # TLB accesses on read requests
system.cpu.itb.rdMisses                             0                       # TLB misses on read requests
system.cpu.itb.wrAccesses                          13                       # TLB accesses on write requests
system.cpu.itb.wrMisses                             0                       # TLB misses on write requests
system.cpu.not_idle_fraction                        1                       # Percentage of non-idle cycles
system.cpu.numCycles                               21                       # number of cpu cycles simulated
system.cpu.numWorkItemsCompleted                    0                       # number of work items this cpu completed
system.cpu.numWorkItemsStarted                      0                       # number of work items this cpu started
system.cpu.num_busy_cycles                         21                       # Number of busy cycles
system.cpu.num_cc_register_reads                   10                       # number of times the CC registers were read
system.cpu.num_cc_register_writes                   4                       # number of times the CC registers were written
system.cpu.num_conditional_control_insts            2                       # number of instructions that are conditional controls
system.cpu.num_fp_alu_accesses                      0                       # Number of float alu accesses
system.cpu.num_fp_insts                             0                       # number of float instructions
system.cpu.num_fp_register_reads                    0                       # number of times the floating registers were read
system.cpu.num_fp_register_writes                   0                       # number of times the floating registers were written
system.cpu.num_func_calls                           0                       # number of times a function call or return occured
system.cpu.num_idle_cycles                          0                       # Number of idle cycles
system.cpu.num_int_alu_accesses                    16                       # Number of integer alu accesses
system.cpu.num_int_insts                           16                       # number of integer instructions
system.cpu.num_int_register_reads                  38                       # number of times the integer registers were read
system.cpu.num_int_register_writes                 14                       # number of times the integer registers were written
system.cpu.num_load_insts                           4                       # Number of load instructions
system.cpu.num_mem_refs                             4                       # number of memory refs
system.cpu.num_store_insts                          0                       # Number of store instructions
system.cpu.num_vec_alu_accesses                     0                       # Number of vector alu accesses
system.cpu.num_vec_insts                            0                       # number of vector instructions
system.cpu.num_vec_register_reads                   0                       # number of times the vector registers were read
system.cpu.num_vec_register_writes                  0                       # number of times the vector registers were written
system.cpu.op_class::No_OpClass                     0      0.00%      0.00% # Class of executed instruction
system.cpu.op_class::IntAlu                        12     75.00%     75.00% # Class of executed instruction
system.cpu.op_class::IntMult                        0      0.00%     75.00% # Class of executed instruction
system.cpu.op_class::IntDiv                         0      0.00%     75.00% # Class of executed instruction
system.cpu.op_class::FloatAdd                       0      0.00%     75.00% # Class of executed instruction
system.cpu.op_class::FloatCmp                       0      0.00%     75.00% # Class of executed instruction
system.cpu.op_class::FloatCvt                       0      0.00%     75.00% # Class of executed instruction
system.cpu.op_class::FloatMult                      0      0.00%     75.00% # Class of executed instruction
system.cpu.op_class::FloatMultAcc                   0      0.00%     75.00% # Class of executed instruction
system.cpu.op_class::FloatDiv                       0      0.00%     75.00% # Class of executed instruction
system.cpu.op_class::FloatMisc                      0      0.00%     75.00% # Class of executed instruction
system.cpu.op_class::FloatSqrt                      0      0.00%     75.00% # Class of executed instruction
system.cpu.op_class::SimdAdd                        0      0.00%     75.00% # Class of executed instruction
system.cpu.op_class::SimdAddAcc                     0      0.00%     75.00% # Class of executed instruction
system.cpu.op_class::SimdAlu                        0      0.00%     75.00% # Class of executed instruction
system.cpu.op_class::SimdCmp                        0      0.00%     75.00% # Class of executed instruction
system.cpu.op_class::SimdCvt                        0      0.00%     75.00% # Class of executed instruction
system.cpu.op_class::SimdMisc                       0      0.00%     75.00% # Class of executed instruction
system.cpu.op_class::SimdMult                       0      0.00%     75.00% # Class of executed instruction
system.cpu.op_class::SimdMultAcc                    0      0.00%     75.00% # Class of executed instruction
system.cpu.op_class::SimdShift                      0      0.00%     75.00% # Class of executed instruction
system.cpu.op_class::SimdShiftAcc                   0      0.00%     75.00% # Class of executed instruction
system.cpu.op_class::SimdDiv                        0      0.00%     75.00% # Class of executed instruction
system.cpu.op_class::SimdSqrt                       0      0.00%     75.00% # Class of executed instruction
system.cpu.op_class::SimdFloatAdd                   0      0.00%     75.00% # Class of executed instruction
system.cpu.op_class::SimdFloatAlu                   0      0.00%     75.00% # Class of executed instruction
system.cpu.op_class::SimdFloatCmp                   0      0.00%     75.00% # Class of executed instruction
system.cpu.op_class::SimdFloatCvt                   0      0.00%     75.00% # Class of executed instruction
system.cpu.op_class::SimdFloatDiv                   0      0.00%     75.00% # Class of executed instruction
system.cpu.op_class::SimdFloatMisc                  0      0.00%     75.00% # Class of executed instruction
system.cpu.op_class::SimdFloatMult                  0      0.00%     75.00% # Class of executed instruction
system.cpu.op_class::SimdFloatMultAcc               0      0.00%     75.00% # Class of executed instruction
system.cpu.op_class::SimdFloatSqrt                  0      0.00%     75.00% # Class of executed instruction
system.cpu.op_class::SimdReduceAdd                  0      0.00%     75.00% # Class of executed instruction
system.cpu.op_class::SimdReduceAlu                  0      0.00%     75.00% # Class of executed instruction
system.cpu.op_class::SimdReduceCmp                  0      0.00%     75.00% # Class of executed instruction
system.cpu.op_class::SimdFloatReduceAdd             0      0.00%     75.00% # Class of executed instruction
system.cpu.op_class::SimdFloatReduceCmp             0      0.00%     75.00% # Class of executed instruction
system.cpu.op_class::SimdAes                        0      0.00%     75.00% # Class of executed instruction
system.cpu.op_class::SimdAesMix                     0      0.00%     75.00% # Class of executed instruction
system.cpu.op_class::SimdSha1Hash                   0      0.00%     75.00% # Class of executed instruction
system.cpu.op_class::SimdSha1Hash2                  0      0.00%     75.00% # Class of executed instruction
system.cpu.op_class::SimdSha256Hash                 0      0.00%     75.00% # Class of executed instruction
system.cpu.op_class::SimdSha256Hash2                0      0.00%     75.00% # Class of executed instruction
system.cpu.op_class::SimdShaSigma2                  0      0.00%     75.00% # Class of executed instruction
system.cpu.op_class::SimdShaSigma3                  0      0.00%     75.00% # Class of executed instruction
system.cpu.op_class::SimdPredAlu                    0      0.00%     75.00% # Class of executed instruction
system.cpu.op_class::MemRead                        4     25.00%    100.00% # Class of executed instruction
system.cpu.op_class::MemWrite                       0      0.00%    100.00% # Class of executed instruction
system.cpu.op_class::FloatMemRead                   0      0.00%    100.00% # Class of executed instruction
system.cpu.op_class::FloatMemWrite                  0      0.00%    100.00% # Class of executed instruction
system.cpu.op_class::IprAccess                      0      0.00%    100.00% # Class of executed instruction
system.cpu.op_class::InstPrefetch                   0      0.00%    100.00% # Class of executed instruction
system.cpu.op_class::total                         16                       # Class of executed instruction
system.cpu.workload.numSyscalls                     0                       # Number of system calls
system.membus.snoop_filter.hit_multi_requests            0                       # Number of requests hitting in the snoop filter with multiple (>1) holders of the requested data.
system.membus.snoop_filter.hit_multi_snoops            0                       # Number of snoops hitting in the snoop filter with multiple (>1) holders of the requested data.
system.membus.snoop_filter.hit_single_requests        82837                       # Number of requests hitting in the snoop filter with a single holder of the requested data.
system.membus.snoop_filter.hit_single_snoops            0                       # Number of snoops hitting in the snoop filter with a single holder of the requested data.
system.membus.snoop_filter.tot_requests        169817                       # Total number of requests made to the snoop filter.
system.membus.snoop_filter.tot_snoops               0                       # Total number of snoops made to the snoop filter.
system.switch_cpus.branchPred.BTBCorrect            0                       # Number of correct BTB predictions (this stat may not work properly.
system.switch_cpus.branchPred.BTBHitPct      0.000000                       # BTB Hit Percentage
system.switch_cpus.branchPred.BTBHits               0                       # Number of BTB hits
system.switch_cpus.branchPred.BTBLookups      2032961                       # Number of BTB lookups
system.switch_cpus.branchPred.RASInCorrect            1                       # Number of incorrect RAS predictions.
system.switch_cpus.branchPred.condIncorrect          274                       # Number of conditional branches incorrect
system.switch_cpus.branchPred.condPredicted      2604023                       # Number of conditional branches predicted
system.switch_cpus.branchPred.indirectHits       411091                       # Number of indirect target hits.
system.switch_cpus.branchPred.indirectLookups      2032961                       # Number of indirect predictor lookups.
system.switch_cpus.branchPred.indirectMisses      1621870                       # Number of indirect misses.
system.switch_cpus.branchPred.lookups         2604234                       # Number of BP lookups
system.switch_cpus.branchPred.usedRAS              96                       # Number of times the RAS was used to get a target.
system.switch_cpus.branchPredindirectMispredicted          166                       # Number of mispredicted indirect branches.
system.switch_cpus.cc_regfile_reads          13013799                       # number of cc regfile reads
system.switch_cpus.cc_regfile_writes          6028269                       # number of cc regfile writes
system.switch_cpus.commit.amos                      0                       # Number of atomic instructions committed
system.switch_cpus.commit.branchMispredicts          296                       # The number of times a branch was mispredicted
system.switch_cpus.commit.branches            2602424                       # Number of branches committed
system.switch_cpus.commit.bw_lim_events       2360274                       # number cycles where commit BW limit reached
system.switch_cpus.commit.commitSquashedInsts        10749                       # The number of squashed insts skipped by commit
system.switch_cpus.commit.committedInsts     10000001                       # Number of instructions committed
system.switch_cpus.commit.committedOps       20409587                       # Number of ops (including micro ops) committed
system.switch_cpus.commit.committed_per_cycle::samples     13907424                       # Number of insts commited each cycle
system.switch_cpus.commit.committed_per_cycle::mean     1.467532                       # Number of insts commited each cycle
system.switch_cpus.commit.committed_per_cycle::stdev     3.027987                       # Number of insts commited each cycle
system.switch_cpus.commit.committed_per_cycle::underflows            0      0.00%      0.00% # Number of insts commited each cycle
system.switch_cpus.commit.committed_per_cycle::0     10988379     79.01%     79.01% # Number of insts commited each cycle
system.switch_cpus.commit.committed_per_cycle::1       254600      1.83%     80.84% # Number of insts commited each cycle
system.switch_cpus.commit.committed_per_cycle::2        12081      0.09%     80.93% # Number of insts commited each cycle
system.switch_cpus.commit.committed_per_cycle::3       169755      1.22%     82.15% # Number of insts commited each cycle
system.switch_cpus.commit.committed_per_cycle::4         4789      0.03%     82.18% # Number of insts commited each cycle
system.switch_cpus.commit.committed_per_cycle::5        37034      0.27%     82.45% # Number of insts commited each cycle
system.switch_cpus.commit.committed_per_cycle::6        28542      0.21%     82.65% # Number of insts commited each cycle
system.switch_cpus.commit.committed_per_cycle::7        51970      0.37%     83.03% # Number of insts commited each cycle
system.switch_cpus.commit.committed_per_cycle::8      2360274     16.97%    100.00% # Number of insts commited each cycle
system.switch_cpus.commit.committed_per_cycle::overflows            0      0.00%    100.00% # Number of insts commited each cycle
system.switch_cpus.commit.committed_per_cycle::min_value            0                       # Number of insts commited each cycle
system.switch_cpus.commit.committed_per_cycle::max_value            8                       # Number of insts commited each cycle
system.switch_cpus.commit.committed_per_cycle::total     13907424                       # Number of insts commited each cycle
system.switch_cpus.commit.fp_insts                  0                       # Number of committed floating point instructions.
system.switch_cpus.commit.function_calls           13                       # Number of function calls committed.
system.switch_cpus.commit.int_insts          20409570                       # Number of committed integer instructions.
system.switch_cpus.commit.loads               4520300                       # Number of loads committed
system.switch_cpus.commit.membars                   0                       # Number of memory barriers committed
system.switch_cpus.commit.op_class_0::No_OpClass           17      0.00%      0.00% # Class of committed instruction
system.switch_cpus.commit.op_class_0::IntAlu     15752017     77.18%     77.18% # Class of committed instruction
system.switch_cpus.commit.op_class_0::IntMult            0      0.00%     77.18% # Class of committed instruction
system.switch_cpus.commit.op_class_0::IntDiv            0      0.00%     77.18% # Class of committed instruction
system.switch_cpus.commit.op_class_0::FloatAdd            0      0.00%     77.18% # Class of committed instruction
system.switch_cpus.commit.op_class_0::FloatCmp            0      0.00%     77.18% # Class of committed instruction
system.switch_cpus.commit.op_class_0::FloatCvt            0      0.00%     77.18% # Class of committed instruction
system.switch_cpus.commit.op_class_0::FloatMult            0      0.00%     77.18% # Class of committed instruction
system.switch_cpus.commit.op_class_0::FloatMultAcc            0      0.00%     77.18% # Class of committed instruction
system.switch_cpus.commit.op_class_0::FloatDiv            0      0.00%     77.18% # Class of committed instruction
system.switch_cpus.commit.op_class_0::FloatMisc            0      0.00%     77.18% # Class of committed instruction
system.switch_cpus.commit.op_class_0::FloatSqrt            0      0.00%     77.18% # Class of committed instruction
system.switch_cpus.commit.op_class_0::SimdAdd            0      0.00%     77.18% # Class of committed instruction
system.switch_cpus.commit.op_class_0::SimdAddAcc            0      0.00%     77.18% # Class of committed instruction
system.switch_cpus.commit.op_class_0::SimdAlu            0      0.00%     77.18% # Class of committed instruction
system.switch_cpus.commit.op_class_0::SimdCmp            0      0.00%     77.18% # Class of committed instruction
system.switch_cpus.commit.op_class_0::SimdCvt            0      0.00%     77.18% # Class of committed instruction
system.switch_cpus.commit.op_class_0::SimdMisc            0      0.00%     77.18% # Class of committed instruction
system.switch_cpus.commit.op_class_0::SimdMult            0      0.00%     77.18% # Class of committed instruction
system.switch_cpus.commit.op_class_0::SimdMultAcc            0      0.00%     77.18% # Class of committed instruction
system.switch_cpus.commit.op_class_0::SimdShift            0      0.00%     77.18% # Class of committed instruction
system.switch_cpus.commit.op_class_0::SimdShiftAcc            0      0.00%     77.18% # Class of committed instruction
system.switch_cpus.commit.op_class_0::SimdDiv            0      0.00%     77.18% # Class of committed instruction
system.switch_cpus.commit.op_class_0::SimdSqrt            0      0.00%     77.18% # Class of committed instruction
system.switch_cpus.commit.op_class_0::SimdFloatAdd            0      0.00%     77.18% # Class of committed instruction
system.switch_cpus.commit.op_class_0::SimdFloatAlu            0      0.00%     77.18% # Class of committed instruction
system.switch_cpus.commit.op_class_0::SimdFloatCmp            0      0.00%     77.18% # Class of committed instruction
system.switch_cpus.commit.op_class_0::SimdFloatCvt            0      0.00%     77.18% # Class of committed instruction
system.switch_cpus.commit.op_class_0::SimdFloatDiv            0      0.00%     77.18% # Class of committed instruction
system.switch_cpus.commit.op_class_0::SimdFloatMisc            0      0.00%     77.18% # Class of committed instruction
system.switch_cpus.commit.op_class_0::SimdFloatMult            0      0.00%     77.18% # Class of committed instruction
system.switch_cpus.commit.op_class_0::SimdFloatMultAcc            0      0.00%     77.18% # Class of committed instruction
system.switch_cpus.commit.op_class_0::SimdFloatSqrt            0      0.00%     77.18% # Class of committed instruction
system.switch_cpus.commit.op_class_0::SimdReduceAdd            0      0.00%     77.18% # Class of committed instruction
system.switch_cpus.commit.op_class_0::SimdReduceAlu            0      0.00%     77.18% # Class of committed instruction
system.switch_cpus.commit.op_class_0::SimdReduceCmp            0      0.00%     77.18% # Class of committed instruction
system.switch_cpus.commit.op_class_0::SimdFloatReduceAdd            0      0.00%     77.18% # Class of committed instruction
system.switch_cpus.commit.op_class_0::SimdFloatReduceCmp            0      0.00%     77.18% # Class of committed instruction
system.switch_cpus.commit.op_class_0::SimdAes            0      0.00%     77.18% # Class of committed instruction
system.switch_cpus.commit.op_class_0::SimdAesMix            0      0.00%     77.18% # Class of committed instruction
system.switch_cpus.commit.op_class_0::SimdSha1Hash            0      0.00%     77.18% # Class of committed instruction
system.switch_cpus.commit.op_class_0::SimdSha1Hash2            0      0.00%     77.18% # Class of committed instruction
system.switch_cpus.commit.op_class_0::SimdSha256Hash            0      0.00%     77.18% # Class of committed instruction
system.switch_cpus.commit.op_class_0::SimdSha256Hash2            0      0.00%     77.18% # Class of committed instruction
system.switch_cpus.commit.op_class_0::SimdShaSigma2            0      0.00%     77.18% # Class of committed instruction
system.switch_cpus.commit.op_class_0::SimdShaSigma3            0      0.00%     77.18% # Class of committed instruction
system.switch_cpus.commit.op_class_0::SimdPredAlu            0      0.00%     77.18% # Class of committed instruction
system.switch_cpus.commit.op_class_0::MemRead      4520300     22.15%     99.33% # Class of committed instruction
system.switch_cpus.commit.op_class_0::MemWrite       137253      0.67%    100.00% # Class of committed instruction
system.switch_cpus.commit.op_class_0::FloatMemRead            0      0.00%    100.00% # Class of committed instruction
system.switch_cpus.commit.op_class_0::FloatMemWrite            0      0.00%    100.00% # Class of committed instruction
system.switch_cpus.commit.op_class_0::IprAccess            0      0.00%    100.00% # Class of committed instruction
system.switch_cpus.commit.op_class_0::InstPrefetch            0      0.00%    100.00% # Class of committed instruction
system.switch_cpus.commit.op_class_0::total     20409587                       # Class of committed instruction
system.switch_cpus.commit.refs                4657553                       # Number of memory references committed
system.switch_cpus.commit.swp_count                 0                       # Number of s/w prefetches committed
system.switch_cpus.commit.vec_insts                 0                       # Number of committed Vector instructions.
system.switch_cpus.committedInsts            10000001                       # Number of Instructions Simulated
system.switch_cpus.committedOps              20409587                       # Number of Ops (including micro ops) Simulated
system.switch_cpus.cpi                       1.391248                       # CPI: Cycles Per Instruction
system.switch_cpus.cpi_total                 1.391248                       # CPI: Total CPI of All Threads
system.switch_cpus.decode.BlockedCycles      10342172                       # Number of cycles decode is blocked
system.switch_cpus.decode.DecodedInsts       20423886                       # Number of instructions handled by decode
system.switch_cpus.decode.IdleCycles           635202                       # Number of cycles decode is idle
system.switch_cpus.decode.RunCycles           2792734                       # Number of cycles decode is running
system.switch_cpus.decode.SquashCycles            333                       # Number of cycles decode is squashing
system.switch_cpus.decode.UnblockCycles        138719                       # Number of cycles decode is unblocking
system.switch_cpus.dtb.rdAccesses             4522298                       # TLB accesses on read requests
system.switch_cpus.dtb.rdMisses                  1669                       # TLB misses on read requests
system.switch_cpus.dtb.wrAccesses              137582                       # TLB accesses on write requests
system.switch_cpus.dtb.wrMisses                     9                       # TLB misses on write requests
system.switch_cpus.fetch.Branches             2604234                       # Number of branches that fetch encountered
system.switch_cpus.fetch.CacheLines            823172                       # Number of cache lines fetched
system.switch_cpus.fetch.Cycles              13083794                       # Number of cycles fetch has run and was not squashing or blocked
system.switch_cpus.fetch.IcacheSquashes            73                       # Number of outstanding Icache misses that were squashed
system.switch_cpus.fetch.Insts               10010961                       # Number of instructions fetch has processed
system.switch_cpus.fetch.MiscStallCycles           22                       # Number of cycles fetch has spent waiting on interrupts, or bad addresses, or out of MSHRs
system.switch_cpus.fetch.PendingTrapStallCycles          276                       # Number of stall cycles due to pending traps
system.switch_cpus.fetch.SquashCycles             666                       # Number of cycles fetch has spent squashing
system.switch_cpus.fetch.branchRate          0.187187                       # Number of branch fetches per cycle
system.switch_cpus.fetch.icacheStallCycles       824747                       # Number of cycles fetch is stalled on an Icache miss
system.switch_cpus.fetch.predictedBranches       411187                       # Number of branches that fetch has predicted taken
system.switch_cpus.fetch.rate                0.719567                       # Number of inst fetches per cycle
system.switch_cpus.fetch.rateDist::samples     13909172                       # Number of instructions fetched each cycle (Total)
system.switch_cpus.fetch.rateDist::mean      1.468640                       # Number of instructions fetched each cycle (Total)
system.switch_cpus.fetch.rateDist::stdev     2.960587                       # Number of instructions fetched each cycle (Total)
system.switch_cpus.fetch.rateDist::underflows            0      0.00%      0.00% # Number of instructions fetched each cycle (Total)
system.switch_cpus.fetch.rateDist::0         10754461     77.32%     77.32% # Number of instructions fetched each cycle (Total)
system.switch_cpus.fetch.rateDist::1           370552      2.66%     79.98% # Number of instructions fetched each cycle (Total)
system.switch_cpus.fetch.rateDist::2              152      0.00%     79.98% # Number of instructions fetched each cycle (Total)
system.switch_cpus.fetch.rateDist::3           129689      0.93%     80.92% # Number of instructions fetched each cycle (Total)
system.switch_cpus.fetch.rateDist::4           301699      2.17%     83.09% # Number of instructions fetched each cycle (Total)
system.switch_cpus.fetch.rateDist::5            63928      0.46%     83.55% # Number of instructions fetched each cycle (Total)
system.switch_cpus.fetch.rateDist::6              228      0.00%     83.55% # Number of instructions fetched each cycle (Total)
system.switch_cpus.fetch.rateDist::7           167863      1.21%     84.75% # Number of instructions fetched each cycle (Total)
system.switch_cpus.fetch.rateDist::8          2120600     15.25%    100.00% # Number of instructions fetched each cycle (Total)
system.switch_cpus.fetch.rateDist::overflows            0      0.00%    100.00% # Number of instructions fetched each cycle (Total)
system.switch_cpus.fetch.rateDist::min_value            0                       # Number of instructions fetched each cycle (Total)
system.switch_cpus.fetch.rateDist::max_value            8                       # Number of instructions fetched each cycle (Total)
system.switch_cpus.fetch.rateDist::total     13909172                       # Number of instructions fetched each cycle (Total)
system.switch_cpus.fp_regfile_writes               56                       # number of floating regfile writes
system.switch_cpus.idleCycles                    3308                       # Total number of cycles that the CPU has spent unscheduled due to idling
system.switch_cpus.iew.branchMispredicts          381                       # Number of branch mispredicts detected at execute
system.switch_cpus.iew.exec_branches          2602747                       # Number of branches executed
system.switch_cpus.iew.exec_nop                     0                       # number of nop insts executed
system.switch_cpus.iew.exec_rate             1.467508                       # Inst execution rate
system.switch_cpus.iew.exec_refs              4659967                       # number of memory reference insts executed
system.switch_cpus.iew.exec_stores             137582                       # Number of stores executed
system.switch_cpus.iew.exec_swp                     0                       # number of swp insts executed
system.switch_cpus.iew.iewBlockCycles            3738                       # Number of cycles IEW is blocking
system.switch_cpus.iew.iewDispLoadInsts       4522978                       # Number of dispatched load instructions
system.switch_cpus.iew.iewDispNonSpecInsts            0                       # Number of dispatched non-speculative instructions
system.switch_cpus.iew.iewDispSquashedInsts            7                       # Number of squashed instructions skipped by dispatch
system.switch_cpus.iew.iewDispStoreInsts       137905                       # Number of dispatched store instructions
system.switch_cpus.iew.iewDispatchedInsts     20420405                       # Number of instructions dispatched to IQ
system.switch_cpus.iew.iewExecLoadInsts       4522385                       # Number of load instructions executed
system.switch_cpus.iew.iewExecSquashedInsts          586                       # Number of squashed instructions skipped in execute
system.switch_cpus.iew.iewExecutedInsts      20416669                       # Number of executed instructions
system.switch_cpus.iew.iewIQFullEvents             43                       # Number of times the IQ has become full, causing a stall
system.switch_cpus.iew.iewIdleCycles                0                       # Number of cycles IEW is idle
system.switch_cpus.iew.iewLSQFullEvents        203537                       # Number of times the LSQ has become full, causing a stall
system.switch_cpus.iew.iewSquashCycles            333                       # Number of cycles IEW is squashing
system.switch_cpus.iew.iewUnblockCycles        203583                       # Number of cycles IEW is unblocking
system.switch_cpus.iew.lsq.thread0.blockedLoads            0                       # Number of blocked loads due to partial load-store forwarding
system.switch_cpus.iew.lsq.thread0.cacheBlocked           16                       # Number of times an access to memory failed due to the cache being blocked
system.switch_cpus.iew.lsq.thread0.forwLoads          180                       # Number of loads that had data forwarded from stores
system.switch_cpus.iew.lsq.thread0.ignoredResponses            2                       # Number of memory responses ignored because the instruction is squashed
system.switch_cpus.iew.lsq.thread0.invAddrLoads            0                       # Number of loads ignored due to an invalid address
system.switch_cpus.iew.lsq.thread0.invAddrSwpfs            0                       # Number of software prefetches ignored due to an invalid address
system.switch_cpus.iew.lsq.thread0.memOrderViolation           44                       # Number of memory ordering violations
system.switch_cpus.iew.lsq.thread0.rescheduledLoads            5                       # Number of loads that were rescheduled
system.switch_cpus.iew.lsq.thread0.squashedLoads         2660                       # Number of loads squashed
system.switch_cpus.iew.lsq.thread0.squashedStores          651                       # Number of stores squashed
system.switch_cpus.iew.memOrderViolationEvents           44                       # Number of memory order violations
system.switch_cpus.iew.predictedNotTakenIncorrect          342                       # Number of branches that were predicted not taken incorrectly
system.switch_cpus.iew.predictedTakenIncorrect           39                       # Number of branches that were predicted taken incorrectly
system.switch_cpus.iew.wb_consumers          24760981                       # num instructions consuming a value
system.switch_cpus.iew.wb_count              20415920                       # cumulative count of insts written-back
system.switch_cpus.iew.wb_fanout             0.696837                       # average fanout of values written-back
system.switch_cpus.iew.wb_producers          17254364                       # num instructions producing a value
system.switch_cpus.iew.wb_rate               1.467454                       # insts written-back per cycle
system.switch_cpus.iew.wb_sent               20416144                       # cumulative count of insts sent to commit
system.switch_cpus.int_regfile_reads         36036459                       # number of integer regfile reads
system.switch_cpus.int_regfile_writes        17675677                       # number of integer regfile writes
system.switch_cpus.ipc                       0.718779                       # IPC: Instructions Per Cycle
system.switch_cpus.ipc_total                 0.718779                       # IPC: Total IPC of All Threads
system.switch_cpus.iq.FU_type_0::No_OpClass          191      0.00%      0.00% # Type of FU issued
system.switch_cpus.iq.FU_type_0::IntAlu      15756874     77.17%     77.18% # Type of FU issued
system.switch_cpus.iq.FU_type_0::IntMult            0      0.00%     77.18% # Type of FU issued
system.switch_cpus.iq.FU_type_0::IntDiv             0      0.00%     77.18% # Type of FU issued
system.switch_cpus.iq.FU_type_0::FloatAdd            0      0.00%     77.18% # Type of FU issued
system.switch_cpus.iq.FU_type_0::FloatCmp            0      0.00%     77.18% # Type of FU issued
system.switch_cpus.iq.FU_type_0::FloatCvt            0      0.00%     77.18% # Type of FU issued
system.switch_cpus.iq.FU_type_0::FloatMult            0      0.00%     77.18% # Type of FU issued
system.switch_cpus.iq.FU_type_0::FloatMultAcc            0      0.00%     77.18% # Type of FU issued
system.switch_cpus.iq.FU_type_0::FloatDiv            0      0.00%     77.18% # Type of FU issued
system.switch_cpus.iq.FU_type_0::FloatMisc            0      0.00%     77.18% # Type of FU issued
system.switch_cpus.iq.FU_type_0::FloatSqrt            0      0.00%     77.18% # Type of FU issued
system.switch_cpus.iq.FU_type_0::SimdAdd            0      0.00%     77.18% # Type of FU issued
system.switch_cpus.iq.FU_type_0::SimdAddAcc            0      0.00%     77.18% # Type of FU issued
system.switch_cpus.iq.FU_type_0::SimdAlu            0      0.00%     77.18% # Type of FU issued
system.switch_cpus.iq.FU_type_0::SimdCmp            0      0.00%     77.18% # Type of FU issued
system.switch_cpus.iq.FU_type_0::SimdCvt            0      0.00%     77.18% # Type of FU issued
system.switch_cpus.iq.FU_type_0::SimdMisc            0      0.00%     77.18% # Type of FU issued
system.switch_cpus.iq.FU_type_0::SimdMult            0      0.00%     77.18% # Type of FU issued
system.switch_cpus.iq.FU_type_0::SimdMultAcc            0      0.00%     77.18% # Type of FU issued
system.switch_cpus.iq.FU_type_0::SimdShift            0      0.00%     77.18% # Type of FU issued
system.switch_cpus.iq.FU_type_0::SimdShiftAcc            0      0.00%     77.18% # Type of FU issued
system.switch_cpus.iq.FU_type_0::SimdDiv            0      0.00%     77.18% # Type of FU issued
system.switch_cpus.iq.FU_type_0::SimdSqrt            0      0.00%     77.18% # Type of FU issued
system.switch_cpus.iq.FU_type_0::SimdFloatAdd            0      0.00%     77.18% # Type of FU issued
system.switch_cpus.iq.FU_type_0::SimdFloatAlu            0      0.00%     77.18% # Type of FU issued
system.switch_cpus.iq.FU_type_0::SimdFloatCmp            0      0.00%     77.18% # Type of FU issued
system.switch_cpus.iq.FU_type_0::SimdFloatCvt            0      0.00%     77.18% # Type of FU issued
system.switch_cpus.iq.FU_type_0::SimdFloatDiv            0      0.00%     77.18% # Type of FU issued
system.switch_cpus.iq.FU_type_0::SimdFloatMisc            0      0.00%     77.18% # Type of FU issued
system.switch_cpus.iq.FU_type_0::SimdFloatMult            0      0.00%     77.18% # Type of FU issued
system.switch_cpus.iq.FU_type_0::SimdFloatMultAcc            0      0.00%     77.18% # Type of FU issued
system.switch_cpus.iq.FU_type_0::SimdFloatSqrt            0      0.00%     77.18% # Type of FU issued
system.switch_cpus.iq.FU_type_0::SimdReduceAdd            0      0.00%     77.18% # Type of FU issued
system.switch_cpus.iq.FU_type_0::SimdReduceAlu            0      0.00%     77.18% # Type of FU issued
system.switch_cpus.iq.FU_type_0::SimdReduceCmp            0      0.00%     77.18% # Type of FU issued
system.switch_cpus.iq.FU_type_0::SimdFloatReduceAdd            0      0.00%     77.18% # Type of FU issued
system.switch_cpus.iq.FU_type_0::SimdFloatReduceCmp            0      0.00%     77.18% # Type of FU issued
system.switch_cpus.iq.FU_type_0::SimdAes            0      0.00%     77.18% # Type of FU issued
system.switch_cpus.iq.FU_type_0::SimdAesMix            0      0.00%     77.18% # Type of FU issued
system.switch_cpus.iq.FU_type_0::SimdSha1Hash            0      0.00%     77.18% # Type of FU issued
system.switch_cpus.iq.FU_type_0::SimdSha1Hash2            0      0.00%     77.18% # Type of FU issued
system.switch_cpus.iq.FU_type_0::SimdSha256Hash            0      0.00%     77.18% # Type of FU issued
system.switch_cpus.iq.FU_type_0::SimdSha256Hash2            0      0.00%     77.18% # Type of FU issued
system.switch_cpus.iq.FU_type_0::SimdShaSigma2            0      0.00%     77.18% # Type of FU issued
system.switch_cpus.iq.FU_type_0::SimdShaSigma3            0      0.00%     77.18% # Type of FU issued
system.switch_cpus.iq.FU_type_0::SimdPredAlu            0      0.00%     77.18% # Type of FU issued
system.switch_cpus.iq.FU_type_0::MemRead      4522569     22.15%     99.33% # Type of FU issued
system.switch_cpus.iq.FU_type_0::MemWrite       137626      0.67%    100.00% # Type of FU issued
system.switch_cpus.iq.FU_type_0::FloatMemRead            0      0.00%    100.00% # Type of FU issued
system.switch_cpus.iq.FU_type_0::FloatMemWrite            0      0.00%    100.00% # Type of FU issued
system.switch_cpus.iq.FU_type_0::IprAccess            0      0.00%    100.00% # Type of FU issued
system.switch_cpus.iq.FU_type_0::InstPrefetch            0      0.00%    100.00% # Type of FU issued
system.switch_cpus.iq.FU_type_0::total       20417260                       # Type of FU issued
system.switch_cpus.iq.fp_alu_accesses               0                       # Number of floating point alu accesses
system.switch_cpus.iq.fp_inst_queue_reads            0                       # Number of floating instruction queue reads
system.switch_cpus.iq.fp_inst_queue_wakeup_accesses            0                       # Number of floating instruction queue wakeup accesses
system.switch_cpus.iq.fp_inst_queue_writes            0                       # Number of floating instruction queue writes
system.switch_cpus.iq.fu_busy_cnt              394562                       # FU busy when requested
system.switch_cpus.iq.fu_busy_rate           0.019325                       # FU busy rate (busy events/executed inst)
system.switch_cpus.iq.fu_full::No_OpClass            0      0.00%      0.00% # attempts to use FU when none available
system.switch_cpus.iq.fu_full::IntAlu          394467     99.98%     99.98% # attempts to use FU when none available
system.switch_cpus.iq.fu_full::IntMult              0      0.00%     99.98% # attempts to use FU when none available
system.switch_cpus.iq.fu_full::IntDiv               0      0.00%     99.98% # attempts to use FU when none available
system.switch_cpus.iq.fu_full::FloatAdd             0      0.00%     99.98% # attempts to use FU when none available
system.switch_cpus.iq.fu_full::FloatCmp             0      0.00%     99.98% # attempts to use FU when none available
system.switch_cpus.iq.fu_full::FloatCvt             0      0.00%     99.98% # attempts to use FU when none available
system.switch_cpus.iq.fu_full::FloatMult            0      0.00%     99.98% # attempts to use FU when none available
system.switch_cpus.iq.fu_full::FloatMultAcc            0      0.00%     99.98% # attempts to use FU when none available
system.switch_cpus.iq.fu_full::FloatDiv             0      0.00%     99.98% # attempts to use FU when none available
system.switch_cpus.iq.fu_full::FloatMisc            0      0.00%     99.98% # attempts to use FU when none available
system.switch_cpus.iq.fu_full::FloatSqrt            0      0.00%     99.98% # attempts to use FU when none available
system.switch_cpus.iq.fu_full::SimdAdd              0      0.00%     99.98% # attempts to use FU when none available
system.switch_cpus.iq.fu_full::SimdAddAcc            0      0.00%     99.98% # attempts to use FU when none available
system.switch_cpus.iq.fu_full::SimdAlu              0      0.00%     99.98% # attempts to use FU when none available
system.switch_cpus.iq.fu_full::SimdCmp              0      0.00%     99.98% # attempts to use FU when none available
system.switch_cpus.iq.fu_full::SimdCvt              0      0.00%     99.98% # attempts to use FU when none available
system.switch_cpus.iq.fu_full::SimdMisc             0      0.00%     99.98% # attempts to use FU when none available
system.switch_cpus.iq.fu_full::SimdMult             0      0.00%     99.98% # attempts to use FU when none available
system.switch_cpus.iq.fu_full::SimdMultAcc            0      0.00%     99.98% # attempts to use FU when none available
system.switch_cpus.iq.fu_full::SimdShift            0      0.00%     99.98% # attempts to use FU when none available
system.switch_cpus.iq.fu_full::SimdShiftAcc            0      0.00%     99.98% # attempts to use FU when none available
system.switch_cpus.iq.fu_full::SimdDiv              0      0.00%     99.98% # attempts to use FU when none available
system.switch_cpus.iq.fu_full::SimdSqrt             0      0.00%     99.98% # attempts to use FU when none available
system.switch_cpus.iq.fu_full::SimdFloatAdd            0      0.00%     99.98% # attempts to use FU when none available
system.switch_cpus.iq.fu_full::SimdFloatAlu            0      0.00%     99.98% # attempts to use FU when none available
system.switch_cpus.iq.fu_full::SimdFloatCmp            0      0.00%     99.98% # attempts to use FU when none available
system.switch_cpus.iq.fu_full::SimdFloatCvt            0      0.00%     99.98% # attempts to use FU when none available
system.switch_cpus.iq.fu_full::SimdFloatDiv            0      0.00%     99.98% # attempts to use FU when none available
system.switch_cpus.iq.fu_full::SimdFloatMisc            0      0.00%     99.98% # attempts to use FU when none available
system.switch_cpus.iq.fu_full::SimdFloatMult            0      0.00%     99.98% # attempts to use FU when none available
system.switch_cpus.iq.fu_full::SimdFloatMultAcc            0      0.00%     99.98% # attempts to use FU when none available
system.switch_cpus.iq.fu_full::SimdFloatSqrt            0      0.00%     99.98% # attempts to use FU when none available
system.switch_cpus.iq.fu_full::SimdReduceAdd            0      0.00%     99.98% # attempts to use FU when none available
system.switch_cpus.iq.fu_full::SimdReduceAlu            0      0.00%     99.98% # attempts to use FU when none available
system.switch_cpus.iq.fu_full::SimdReduceCmp            0      0.00%     99.98% # attempts to use FU when none available
system.switch_cpus.iq.fu_full::SimdFloatReduceAdd            0      0.00%     99.98% # attempts to use FU when none available
system.switch_cpus.iq.fu_full::SimdFloatReduceCmp            0      0.00%     99.98% # attempts to use FU when none available
system.switch_cpus.iq.fu_full::SimdAes              0      0.00%     99.98% # attempts to use FU when none available
system.switch_cpus.iq.fu_full::SimdAesMix            0      0.00%     99.98% # attempts to use FU when none available
system.switch_cpus.iq.fu_full::SimdSha1Hash            0      0.00%     99.98% # attempts to use FU when none available
system.switch_cpus.iq.fu_full::SimdSha1Hash2            0      0.00%     99.98% # attempts to use FU when none available
system.switch_cpus.iq.fu_full::SimdSha256Hash            0      0.00%     99.98% # attempts to use FU when none available
system.switch_cpus.iq.fu_full::SimdSha256Hash2            0      0.00%     99.98% # attempts to use FU when none available
system.switch_cpus.iq.fu_full::SimdShaSigma2            0      0.00%     99.98% # attempts to use FU when none available
system.switch_cpus.iq.fu_full::SimdShaSigma3            0      0.00%     99.98% # attempts to use FU when none available
system.switch_cpus.iq.fu_full::SimdPredAlu            0      0.00%     99.98% # attempts to use FU when none available
system.switch_cpus.iq.fu_full::MemRead             51      0.01%     99.99% # attempts to use FU when none available
system.switch_cpus.iq.fu_full::MemWrite            44      0.01%    100.00% # attempts to use FU when none available
system.switch_cpus.iq.fu_full::FloatMemRead            0      0.00%    100.00% # attempts to use FU when none available
system.switch_cpus.iq.fu_full::FloatMemWrite            0      0.00%    100.00% # attempts to use FU when none available
system.switch_cpus.iq.fu_full::IprAccess            0      0.00%    100.00% # attempts to use FU when none available
system.switch_cpus.iq.fu_full::InstPrefetch            0      0.00%    100.00% # attempts to use FU when none available
system.switch_cpus.iq.int_alu_accesses       20811631                       # Number of integer alu accesses
system.switch_cpus.iq.int_inst_queue_reads     55138305                       # Number of integer instruction queue reads
system.switch_cpus.iq.int_inst_queue_wakeup_accesses     20415920                       # Number of integer instruction queue wakeup accesses
system.switch_cpus.iq.int_inst_queue_writes     20431173                       # Number of integer instruction queue writes
system.switch_cpus.iq.iqInstsAdded           20420405                       # Number of instructions added to the IQ (excludes non-spec)
system.switch_cpus.iq.iqInstsIssued          20417260                       # Number of instructions issued
system.switch_cpus.iq.iqSquashedInstsExamined        10725                       # Number of squashed instructions iterated over during squash; mainly for profiling
system.switch_cpus.iq.iqSquashedInstsIssued           56                       # Number of squashed instructions issued
system.switch_cpus.iq.iqSquashedOperandsExamined        16290                       # Number of squashed operands that are examined and possibly removed from graph
system.switch_cpus.iq.issued_per_cycle::samples     13909172                       # Number of insts issued each cycle
system.switch_cpus.iq.issued_per_cycle::mean     1.467899                       # Number of insts issued each cycle
system.switch_cpus.iq.issued_per_cycle::stdev     2.438746                       # Number of insts issued each cycle
system.switch_cpus.iq.issued_per_cycle::underflows            0      0.00%      0.00% # Number of insts issued each cycle
system.switch_cpus.iq.issued_per_cycle::0      9301679     66.87%     66.87% # Number of insts issued each cycle
system.switch_cpus.iq.issued_per_cycle::1       737505      5.30%     72.18% # Number of insts issued each cycle
system.switch_cpus.iq.issued_per_cycle::2       376245      2.71%     74.88% # Number of insts issued each cycle
system.switch_cpus.iq.issued_per_cycle::3       446024      3.21%     78.09% # Number of insts issued each cycle
system.switch_cpus.iq.issued_per_cycle::4       603403      4.34%     82.43% # Number of insts issued each cycle
system.switch_cpus.iq.issued_per_cycle::5       705137      5.07%     87.50% # Number of insts issued each cycle
system.switch_cpus.iq.issued_per_cycle::6       900528      6.47%     93.97% # Number of insts issued each cycle
system.switch_cpus.iq.issued_per_cycle::7       462480      3.33%     97.30% # Number of insts issued each cycle
system.switch_cpus.iq.issued_per_cycle::8       376171      2.70%    100.00% # Number of insts issued each cycle
system.switch_cpus.iq.issued_per_cycle::overflows            0      0.00%    100.00% # Number of insts issued each cycle
system.switch_cpus.iq.issued_per_cycle::min_value            0                       # Number of insts issued each cycle
system.switch_cpus.iq.issued_per_cycle::max_value            8                       # Number of insts issued each cycle
system.switch_cpus.iq.issued_per_cycle::total     13909172                       # Number of insts issued each cycle
system.switch_cpus.iq.rate                   1.467550                       # Inst issue rate
system.switch_cpus.iq.vec_alu_accesses              0                       # Number of vector alu accesses
system.switch_cpus.iq.vec_inst_queue_reads            0                       # Number of vector instruction queue reads
system.switch_cpus.iq.vec_inst_queue_wakeup_accesses            0                       # Number of vector instruction queue wakeup accesses
system.switch_cpus.iq.vec_inst_queue_writes            0                       # Number of vector instruction queue writes
system.switch_cpus.itb.rdAccesses                   0                       # TLB accesses on read requests
system.switch_cpus.itb.rdMisses                     0                       # TLB misses on read requests
system.switch_cpus.itb.wrAccesses              823216                       # TLB accesses on write requests
system.switch_cpus.itb.wrMisses                    49                       # TLB misses on write requests
system.switch_cpus.memDep0.conflictingLoads          212                       # Number of conflicting loads.
system.switch_cpus.memDep0.conflictingStores           58                       # Number of conflicting stores.
system.switch_cpus.memDep0.insertedLoads      4522978                       # Number of loads inserted to the mem dependence unit.
system.switch_cpus.memDep0.insertedStores       137905                       # Number of stores inserted to the mem dependence unit.
system.switch_cpus.misc_regfile_reads         9866078                       # number of misc regfile reads
system.switch_cpus.misc_regfile_writes              1                       # number of misc regfile writes
system.switch_cpus.numCycles                 13912480                       # number of cpu cycles simulated
system.switch_cpus.numWorkItemsCompleted            0                       # number of work items this cpu completed
system.switch_cpus.numWorkItemsStarted              0                       # number of work items this cpu started
system.switch_cpus.rename.BlockCycles          210311                       # Number of cycles rename is blocking
system.switch_cpus.rename.CommittedMaps      23696892                       # Number of HB maps that are committed
system.switch_cpus.rename.IQFullEvents          73134                       # Number of times rename has blocked due to IQ full
system.switch_cpus.rename.IdleCycles           747117                       # Number of cycles rename is idle
system.switch_cpus.rename.LQFullEvents       10086425                       # Number of times rename has blocked due to LQ full
system.switch_cpus.rename.ROBFullEvents          1276                       # Number of times rename has blocked due to ROB full
system.switch_cpus.rename.RenameLookups      58936532                       # Number of register rename lookups that rename has made
system.switch_cpus.rename.RenamedInsts       20422426                       # Number of instructions processed by rename
system.switch_cpus.rename.RenamedOperands     23711073                       # Number of destination operands rename has renamed
system.switch_cpus.rename.RunCycles           2819483                       # Number of cycles rename is running
system.switch_cpus.rename.SquashCycles            333                       # Number of cycles rename is squashing
system.switch_cpus.rename.UnblockCycles      10131916                       # Number of cycles rename is unblocking
system.switch_cpus.rename.UndoneMaps            14044                       # Number of HB maps that are undone due to squashing
system.switch_cpus.rename.int_rename_lookups     36048474                       # Number of integer rename lookups
system.switch_cpus.rename.serializeStallCycles            0                       # count of cycles rename stalled for serializing inst
system.switch_cpus.rename.serializingInsts            0                       # count of serializing insts renamed
system.switch_cpus.rename.skidInsts           1368094                       # count of insts added to the skid buffer
system.switch_cpus.rename.tempSerializingInsts            0                       # count of temporary serializing insts renamed
system.switch_cpus.rob.rob_reads             31967486                       # The number of ROB reads
system.switch_cpus.rob.rob_writes            40842537                       # The number of ROB writes
system.switch_cpus.timesIdled                      42                       # Number of times that the entire CPU went into an idle state and unscheduled itself
system.tol2bus.snoop_filter.hit_multi_requests            0                       # Number of requests hitting in the snoop filter with multiple (>1) holders of the requested data.
system.tol2bus.snoop_filter.hit_multi_snoops            0                       # Number of snoops hitting in the snoop filter with multiple (>1) holders of the requested data.
system.tol2bus.snoop_filter.hit_single_requests       101599                       # Number of requests hitting in the snoop filter with a single holder of the requested data.
system.tol2bus.snoop_filter.hit_single_snoops        16792                       # Number of snoops hitting in the snoop filter with a single holder of the requested data.
system.tol2bus.snoop_filter.tot_requests       204269                       # Total number of requests made to the snoop filter.
system.tol2bus.snoop_filter.tot_snoops          16792                       # Total number of snoops made to the snoop filter.
system.membus.pwrStateResidencyTicks::UNDEFINED 448280811290500                       # Cumulative time (in ticks) in various power states
system.membus.trans_dist::ReadResp              86970                       # Transaction distribution
system.membus.trans_dist::WritebackDirty           50                       # Transaction distribution
system.membus.trans_dist::CleanEvict            82787                       # Transaction distribution
system.membus.trans_dist::ReadExReq                10                       # Transaction distribution
system.membus.trans_dist::ReadExResp               10                       # Transaction distribution
system.membus.trans_dist::ReadSharedReq         86970                       # Transaction distribution
system.membus.pkt_count_system.l2.mem_side::system.mem_ctrls.port       256797                       # Packet count per connected master and slave (bytes)
system.membus.pkt_count_system.l2.mem_side::total       256797                       # Packet count per connected master and slave (bytes)
system.membus.pkt_count::total                 256797                       # Packet count per connected master and slave (bytes)
system.membus.pkt_size_system.l2.mem_side::system.mem_ctrls.port      5569920                       # Cumulative packet size per connected master and slave (bytes)
system.membus.pkt_size_system.l2.mem_side::total      5569920                       # Cumulative packet size per connected master and slave (bytes)
system.membus.pkt_size::total                 5569920                       # Cumulative packet size per connected master and slave (bytes)
system.membus.snoops                                0                       # Total snoops (count)
system.membus.snoopTraffic                          0                       # Total snoop traffic (bytes)
system.membus.snoop_fanout::samples             86980                       # Request fanout histogram
system.membus.snoop_fanout::mean                    0                       # Request fanout histogram
system.membus.snoop_fanout::stdev                   0                       # Request fanout histogram
system.membus.snoop_fanout::underflows              0      0.00%      0.00% # Request fanout histogram
system.membus.snoop_fanout::0                   86980    100.00%    100.00% # Request fanout histogram
system.membus.snoop_fanout::1                       0      0.00%    100.00% # Request fanout histogram
system.membus.snoop_fanout::overflows               0      0.00%    100.00% # Request fanout histogram
system.membus.snoop_fanout::min_value               0                       # Request fanout histogram
system.membus.snoop_fanout::max_value               0                       # Request fanout histogram
system.membus.snoop_fanout::total               86980                       # Request fanout histogram
system.membus.reqLayer2.occupancy           190448000                       # Layer occupancy (ticks)
system.membus.reqLayer2.utilization               2.7                       # Layer utilization (%)
system.membus.respLayer1.occupancy          461694000                       # Layer occupancy (ticks)
system.membus.respLayer1.utilization              6.6                       # Layer utilization (%)
system.switch_cpus.pwrStateResidencyTicks::OFF   6956250500                       # Cumulative time (in ticks) in various power states
system.switch_cpus.dtb.walker.pwrStateResidencyTicks::UNDEFINED 448280811290500                       # Cumulative time (in ticks) in various power states
system.switch_cpus.itb.walker.pwrStateResidencyTicks::UNDEFINED 448280811290500                       # Cumulative time (in ticks) in various power states
system.tol2bus.pwrStateResidencyTicks::UNDEFINED 448280811290500                       # Cumulative time (in ticks) in various power states
system.tol2bus.trans_dist::ReadResp            102659                       # Transaction distribution
system.tol2bus.trans_dist::WritebackDirty          116                       # Transaction distribution
system.tol2bus.trans_dist::CleanEvict          184370                       # Transaction distribution
system.tol2bus.trans_dist::ReadExReq               10                       # Transaction distribution
system.tol2bus.trans_dist::ReadExResp              10                       # Transaction distribution
system.tol2bus.trans_dist::ReadCleanReq            46                       # Transaction distribution
system.tol2bus.trans_dist::ReadSharedReq       102614                       # Transaction distribution
system.tol2bus.pkt_count_system.cpu.icache.mem_side::system.l2.cpu_side           92                       # Packet count per connected master and slave (bytes)
system.tol2bus.pkt_count_system.cpu.dcache.mem_side::system.l2.cpu_side       306846                       # Packet count per connected master and slave (bytes)
system.tol2bus.pkt_count::total                306938                       # Packet count per connected master and slave (bytes)
system.tol2bus.pkt_size_system.cpu.icache.mem_side::system.l2.cpu_side         2944                       # Cumulative packet size per connected master and slave (bytes)
system.tol2bus.pkt_size_system.cpu.dcache.mem_side::system.l2.cpu_side      6572096                       # Cumulative packet size per connected master and slave (bytes)
system.tol2bus.pkt_size::total                6575040                       # Cumulative packet size per connected master and slave (bytes)
system.tol2bus.snoops                           82887                       # Total snoops (count)
system.tol2bus.snoopTraffic                      3200                       # Total snoop traffic (bytes)
system.tol2bus.snoop_fanout::samples           185557                       # Request fanout histogram
system.tol2bus.snoop_fanout::mean            0.090495                       # Request fanout histogram
system.tol2bus.snoop_fanout::stdev           0.286891                       # Request fanout histogram
system.tol2bus.snoop_fanout::underflows             0      0.00%      0.00% # Request fanout histogram
system.tol2bus.snoop_fanout::0                 168765     90.95%     90.95% # Request fanout histogram
system.tol2bus.snoop_fanout::1                  16792      9.05%    100.00% # Request fanout histogram
system.tol2bus.snoop_fanout::2                      0      0.00%    100.00% # Request fanout histogram
system.tol2bus.snoop_fanout::3                      0      0.00%    100.00% # Request fanout histogram
system.tol2bus.snoop_fanout::4                      0      0.00%    100.00% # Request fanout histogram
system.tol2bus.snoop_fanout::overflows              0      0.00%    100.00% # Request fanout histogram
system.tol2bus.snoop_fanout::min_value              0                       # Request fanout histogram
system.tol2bus.snoop_fanout::max_value              1                       # Request fanout histogram
system.tol2bus.snoop_fanout::total             185557                       # Request fanout histogram
system.tol2bus.reqLayer0.occupancy          102197500                       # Layer occupancy (ticks)
system.tol2bus.reqLayer0.utilization              1.5                       # Layer utilization (%)
system.tol2bus.respLayer1.occupancy         153928500                       # Layer occupancy (ticks)
system.tol2bus.respLayer1.utilization             2.2                       # Layer utilization (%)
system.tol2bus.respLayer0.occupancy             66000                       # Layer occupancy (ticks)
system.tol2bus.respLayer0.utilization             0.0                       # Layer utilization (%)
system.voltage_domain.voltage                       1                       # Voltage in Volts
system.clk_domain.clock                          1000                       # Clock period in ticks
system.l2.pwrStateResidencyTicks::UNDEFINED 448280811290500                       # Cumulative time (in ticks) in various power states
system.l2.demand_hits::.switch_cpus.data        15689                       # number of demand (read+write) hits
system.l2.demand_hits::total                    15689                       # number of demand (read+write) hits
system.l2.overall_hits::.switch_cpus.data        15689                       # number of overall hits
system.l2.overall_hits::total                   15689                       # number of overall hits
system.l2.demand_misses::.cpu.inst                  2                       # number of demand (read+write) misses
system.l2.demand_misses::.cpu.data                  4                       # number of demand (read+write) misses
system.l2.demand_misses::.switch_cpus.inst           44                       # number of demand (read+write) misses
system.l2.demand_misses::.switch_cpus.data        86931                       # number of demand (read+write) misses
system.l2.demand_misses::total                  86981                       # number of demand (read+write) misses
system.l2.overall_misses::.cpu.inst                 2                       # number of overall misses
system.l2.overall_misses::.cpu.data                 4                       # number of overall misses
system.l2.overall_misses::.switch_cpus.inst           44                       # number of overall misses
system.l2.overall_misses::.switch_cpus.data        86931                       # number of overall misses
system.l2.overall_misses::total                 86981                       # number of overall misses
system.l2.demand_miss_latency::.switch_cpus.inst      3514500                       # number of demand (read+write) miss cycles
system.l2.demand_miss_latency::.switch_cpus.data   6591002000                       # number of demand (read+write) miss cycles
system.l2.demand_miss_latency::total       6594516500                       # number of demand (read+write) miss cycles
system.l2.overall_miss_latency::.switch_cpus.inst      3514500                       # number of overall miss cycles
system.l2.overall_miss_latency::.switch_cpus.data   6591002000                       # number of overall miss cycles
system.l2.overall_miss_latency::total      6594516500                       # number of overall miss cycles
system.l2.demand_accesses::.cpu.inst                2                       # number of demand (read+write) accesses
system.l2.demand_accesses::.cpu.data                4                       # number of demand (read+write) accesses
system.l2.demand_accesses::.switch_cpus.inst           44                       # number of demand (read+write) accesses
system.l2.demand_accesses::.switch_cpus.data       102620                       # number of demand (read+write) accesses
system.l2.demand_accesses::total               102670                       # number of demand (read+write) accesses
system.l2.overall_accesses::.cpu.inst               2                       # number of overall (read+write) accesses
system.l2.overall_accesses::.cpu.data               4                       # number of overall (read+write) accesses
system.l2.overall_accesses::.switch_cpus.inst           44                       # number of overall (read+write) accesses
system.l2.overall_accesses::.switch_cpus.data       102620                       # number of overall (read+write) accesses
system.l2.overall_accesses::total              102670                       # number of overall (read+write) accesses
system.l2.demand_miss_rate::.cpu.inst               1                       # miss rate for demand accesses
system.l2.demand_miss_rate::.cpu.data               1                       # miss rate for demand accesses
system.l2.demand_miss_rate::.switch_cpus.inst            1                       # miss rate for demand accesses
system.l2.demand_miss_rate::.switch_cpus.data     0.847116                       # miss rate for demand accesses
system.l2.demand_miss_rate::total            0.847190                       # miss rate for demand accesses
system.l2.overall_miss_rate::.cpu.inst              1                       # miss rate for overall accesses
system.l2.overall_miss_rate::.cpu.data              1                       # miss rate for overall accesses
system.l2.overall_miss_rate::.switch_cpus.inst            1                       # miss rate for overall accesses
system.l2.overall_miss_rate::.switch_cpus.data     0.847116                       # miss rate for overall accesses
system.l2.overall_miss_rate::total           0.847190                       # miss rate for overall accesses
system.l2.demand_avg_miss_latency::.switch_cpus.inst        79875                       # average overall miss latency
system.l2.demand_avg_miss_latency::.switch_cpus.data 75818.775811                       # average overall miss latency
system.l2.demand_avg_miss_latency::total 75815.597659                       # average overall miss latency
system.l2.overall_avg_miss_latency::.switch_cpus.inst        79875                       # average overall miss latency
system.l2.overall_avg_miss_latency::.switch_cpus.data 75818.775811                       # average overall miss latency
system.l2.overall_avg_miss_latency::total 75815.597659                       # average overall miss latency
system.l2.blocked_cycles::no_mshrs                  0                       # number of cycles access was blocked
system.l2.blocked_cycles::no_targets                0                       # number of cycles access was blocked
system.l2.blocked::no_mshrs                         0                       # number of cycles access was blocked
system.l2.blocked::no_targets                       0                       # number of cycles access was blocked
system.l2.avg_blocked_cycles::no_mshrs            nan                       # average number of cycles each access was blocked
system.l2.avg_blocked_cycles::no_targets          nan                       # average number of cycles each access was blocked
system.l2.writebacks::.writebacks                  50                       # number of writebacks
system.l2.writebacks::total                        50                       # number of writebacks
system.l2.demand_mshr_misses::.switch_cpus.inst           44                       # number of demand (read+write) MSHR misses
system.l2.demand_mshr_misses::.switch_cpus.data        86931                       # number of demand (read+write) MSHR misses
system.l2.demand_mshr_misses::total             86975                       # number of demand (read+write) MSHR misses
system.l2.overall_mshr_misses::.switch_cpus.inst           44                       # number of overall MSHR misses
system.l2.overall_mshr_misses::.switch_cpus.data        86931                       # number of overall MSHR misses
system.l2.overall_mshr_misses::total            86975                       # number of overall MSHR misses
system.l2.demand_mshr_miss_latency::.switch_cpus.inst      3074500                       # number of demand (read+write) MSHR miss cycles
system.l2.demand_mshr_miss_latency::.switch_cpus.data   5721702000                       # number of demand (read+write) MSHR miss cycles
system.l2.demand_mshr_miss_latency::total   5724776500                       # number of demand (read+write) MSHR miss cycles
system.l2.overall_mshr_miss_latency::.switch_cpus.inst      3074500                       # number of overall MSHR miss cycles
system.l2.overall_mshr_miss_latency::.switch_cpus.data   5721702000                       # number of overall MSHR miss cycles
system.l2.overall_mshr_miss_latency::total   5724776500                       # number of overall MSHR miss cycles
system.l2.demand_mshr_miss_rate::.switch_cpus.inst            1                       # mshr miss rate for demand accesses
system.l2.demand_mshr_miss_rate::.switch_cpus.data     0.847116                       # mshr miss rate for demand accesses
system.l2.demand_mshr_miss_rate::total       0.847132                       # mshr miss rate for demand accesses
system.l2.overall_mshr_miss_rate::.switch_cpus.inst            1                       # mshr miss rate for overall accesses
system.l2.overall_mshr_miss_rate::.switch_cpus.data     0.847116                       # mshr miss rate for overall accesses
system.l2.overall_mshr_miss_rate::total      0.847132                       # mshr miss rate for overall accesses
system.l2.demand_avg_mshr_miss_latency::.switch_cpus.inst        69875                       # average overall mshr miss latency
system.l2.demand_avg_mshr_miss_latency::.switch_cpus.data 65818.890844                       # average overall mshr miss latency
system.l2.demand_avg_mshr_miss_latency::total 65820.942800                       # average overall mshr miss latency
system.l2.overall_avg_mshr_miss_latency::.switch_cpus.inst        69875                       # average overall mshr miss latency
system.l2.overall_avg_mshr_miss_latency::.switch_cpus.data 65818.890844                       # average overall mshr miss latency
system.l2.overall_avg_mshr_miss_latency::total 65820.942800                       # average overall mshr miss latency
system.l2.replacements                          82887                       # number of replacements
system.l2.WritebackDirty_hits::.writebacks           66                       # number of WritebackDirty hits
system.l2.WritebackDirty_hits::total               66                       # number of WritebackDirty hits
system.l2.WritebackDirty_accesses::.writebacks           66                       # number of WritebackDirty accesses(hits+misses)
system.l2.WritebackDirty_accesses::total           66                       # number of WritebackDirty accesses(hits+misses)
system.l2.CleanEvict_mshr_misses::.writebacks        16742                       # number of CleanEvict MSHR misses
system.l2.CleanEvict_mshr_misses::total         16742                       # number of CleanEvict MSHR misses
system.l2.CleanEvict_mshr_miss_rate::.writebacks          inf                       # mshr miss rate for CleanEvict accesses
system.l2.CleanEvict_mshr_miss_rate::total          inf                       # mshr miss rate for CleanEvict accesses
system.l2.ReadExReq_misses::.switch_cpus.data           10                       # number of ReadExReq misses
system.l2.ReadExReq_misses::total                  10                       # number of ReadExReq misses
system.l2.ReadExReq_miss_latency::.switch_cpus.data       569500                       # number of ReadExReq miss cycles
system.l2.ReadExReq_miss_latency::total        569500                       # number of ReadExReq miss cycles
system.l2.ReadExReq_accesses::.switch_cpus.data           10                       # number of ReadExReq accesses(hits+misses)
system.l2.ReadExReq_accesses::total                10                       # number of ReadExReq accesses(hits+misses)
system.l2.ReadExReq_miss_rate::.switch_cpus.data            1                       # miss rate for ReadExReq accesses
system.l2.ReadExReq_miss_rate::total                1                       # miss rate for ReadExReq accesses
system.l2.ReadExReq_avg_miss_latency::.switch_cpus.data        56950                       # average ReadExReq miss latency
system.l2.ReadExReq_avg_miss_latency::total        56950                       # average ReadExReq miss latency
system.l2.ReadExReq_mshr_misses::.switch_cpus.data           10                       # number of ReadExReq MSHR misses
system.l2.ReadExReq_mshr_misses::total             10                       # number of ReadExReq MSHR misses
system.l2.ReadExReq_mshr_miss_latency::.switch_cpus.data       469500                       # number of ReadExReq MSHR miss cycles
system.l2.ReadExReq_mshr_miss_latency::total       469500                       # number of ReadExReq MSHR miss cycles
system.l2.ReadExReq_mshr_miss_rate::.switch_cpus.data            1                       # mshr miss rate for ReadExReq accesses
system.l2.ReadExReq_mshr_miss_rate::total            1                       # mshr miss rate for ReadExReq accesses
system.l2.ReadExReq_avg_mshr_miss_latency::.switch_cpus.data        46950                       # average ReadExReq mshr miss latency
system.l2.ReadExReq_avg_mshr_miss_latency::total        46950                       # average ReadExReq mshr miss latency
system.l2.ReadCleanReq_misses::.cpu.inst            2                       # number of ReadCleanReq misses
system.l2.ReadCleanReq_misses::.switch_cpus.inst           44                       # number of ReadCleanReq misses
system.l2.ReadCleanReq_misses::total               46                       # number of ReadCleanReq misses
system.l2.ReadCleanReq_miss_latency::.switch_cpus.inst      3514500                       # number of ReadCleanReq miss cycles
system.l2.ReadCleanReq_miss_latency::total      3514500                       # number of ReadCleanReq miss cycles
system.l2.ReadCleanReq_accesses::.cpu.inst            2                       # number of ReadCleanReq accesses(hits+misses)
system.l2.ReadCleanReq_accesses::.switch_cpus.inst           44                       # number of ReadCleanReq accesses(hits+misses)
system.l2.ReadCleanReq_accesses::total             46                       # number of ReadCleanReq accesses(hits+misses)
system.l2.ReadCleanReq_miss_rate::.cpu.inst            1                       # miss rate for ReadCleanReq accesses
system.l2.ReadCleanReq_miss_rate::.switch_cpus.inst            1                       # miss rate for ReadCleanReq accesses
system.l2.ReadCleanReq_miss_rate::total             1                       # miss rate for ReadCleanReq accesses
system.l2.ReadCleanReq_avg_miss_latency::.switch_cpus.inst        79875                       # average ReadCleanReq miss latency
system.l2.ReadCleanReq_avg_miss_latency::total 76402.173913                       # average ReadCleanReq miss latency
system.l2.ReadCleanReq_mshr_misses::.switch_cpus.inst           44                       # number of ReadCleanReq MSHR misses
system.l2.ReadCleanReq_mshr_misses::total           44                       # number of ReadCleanReq MSHR misses
system.l2.ReadCleanReq_mshr_miss_latency::.switch_cpus.inst      3074500                       # number of ReadCleanReq MSHR miss cycles
system.l2.ReadCleanReq_mshr_miss_latency::total      3074500                       # number of ReadCleanReq MSHR miss cycles
system.l2.ReadCleanReq_mshr_miss_rate::.switch_cpus.inst            1                       # mshr miss rate for ReadCleanReq accesses
system.l2.ReadCleanReq_mshr_miss_rate::total     0.956522                       # mshr miss rate for ReadCleanReq accesses
system.l2.ReadCleanReq_avg_mshr_miss_latency::.switch_cpus.inst        69875                       # average ReadCleanReq mshr miss latency
system.l2.ReadCleanReq_avg_mshr_miss_latency::total        69875                       # average ReadCleanReq mshr miss latency
system.l2.ReadSharedReq_hits::.switch_cpus.data        15689                       # number of ReadSharedReq hits
system.l2.ReadSharedReq_hits::total             15689                       # number of ReadSharedReq hits
system.l2.ReadSharedReq_misses::.cpu.data            4                       # number of ReadSharedReq misses
system.l2.ReadSharedReq_misses::.switch_cpus.data        86921                       # number of ReadSharedReq misses
system.l2.ReadSharedReq_misses::total           86925                       # number of ReadSharedReq misses
system.l2.ReadSharedReq_miss_latency::.switch_cpus.data   6590432500                       # number of ReadSharedReq miss cycles
[...]
system.cpu.icache.tags.age_task_id_blocks_1024::4           51                       # Occupied blocks per task id
system.cpu.icache.tags.occ_task_id_percent::1024     0.099609                       # Percentage of cache occupancy per task id
system.cpu.icache.tags.tag_accesses           6581039                       # Number of tag accesses
system.cpu.icache.tags.data_accesses          6581039                       # Number of data accesses
system.cpu.dtb.walker.pwrStateResidencyTicks::UNDEFINED 448303068067000                       # Cumulative time (in ticks) in various power states
system.cpu.interrupts.clk_domain.clock           8000                       # Clock period in ticks
system.cpu.itb_walker_cache.pwrStateResidencyTicks::UNDEFINED 448303068067000                       # Cumulative time (in ticks) in various power states
system.cpu.itb_walker_cache.blocked_cycles::no_mshrs            0                       # number of cycles access was blocked
system.cpu.itb_walker_cache.blocked_cycles::no_targets            0                       # number of cycles access was blocked
system.cpu.itb_walker_cache.blocked::no_mshrs            0                       # number of cycles access was blocked
system.cpu.itb_walker_cache.blocked::no_targets            0                       # number of cycles access was blocked
system.cpu.itb_walker_cache.avg_blocked_cycles::no_mshrs          nan                       # average number of cycles each access was blocked
system.cpu.itb_walker_cache.avg_blocked_cycles::no_targets          nan                       # average number of cycles each access was blocked
system.cpu.itb_walker_cache.replacements            0                       # number of replacements
system.cpu.itb_walker_cache.tags.pwrStateResidencyTicks::UNDEFINED 448303068067000                       # Cumulative time (in ticks) in various power states
system.cpu.itb_walker_cache.tags.tagsinuse            0                       # Cycle average of tags in use
system.cpu.itb_walker_cache.tags.total_refs            0                       # Total number of references to valid blocks.
system.cpu.itb_walker_cache.tags.sampled_refs            0                       # Sample count of references to valid blocks.
system.cpu.itb_walker_cache.tags.avg_refs          nan                       # Average number of references to valid blocks.
system.cpu.itb_walker_cache.tags.warmup_cycle            0                       # Cycle when the warmup percentage was hit.
system.cpu.itb_walker_cache.tags.tag_accesses            0                       # Number of tag accesses
system.cpu.itb_walker_cache.tags.data_accesses            0                       # Number of data accesses
system.cpu.itb.walker.pwrStateResidencyTicks::UNDEFINED 448303068067000                       # Cumulative time (in ticks) in various power states
system.cpu.dtb_walker_cache.pwrStateResidencyTicks::UNDEFINED 448303068067000                       # Cumulative time (in ticks) in various power states
system.cpu.dtb_walker_cache.blocked_cycles::no_mshrs            0                       # number of cycles access was blocked
system.cpu.dtb_walker_cache.blocked_cycles::no_targets            0                       # number of cycles access was blocked
system.cpu.dtb_walker_cache.blocked::no_mshrs            0                       # number of cycles access was blocked
system.cpu.dtb_walker_cache.blocked::no_targets            0                       # number of cycles access was blocked
system.cpu.dtb_walker_cache.avg_blocked_cycles::no_mshrs          nan                       # average number of cycles each access was blocked
system.cpu.dtb_walker_cache.avg_blocked_cycles::no_targets          nan                       # average number of cycles each access was blocked
system.cpu.dtb_walker_cache.replacements            0                       # number of replacements
system.cpu.dtb_walker_cache.tags.pwrStateResidencyTicks::UNDEFINED 448303068067000                       # Cumulative time (in ticks) in various power states
system.cpu.dtb_walker_cache.tags.tagsinuse            0                       # Cycle average of tags in use
system.cpu.dtb_walker_cache.tags.total_refs            0                       # Total number of references to valid blocks.
system.cpu.dtb_walker_cache.tags.sampled_refs            0                       # Sample count of references to valid blocks.
system.cpu.dtb_walker_cache.tags.avg_refs          nan                       # Average number of references to valid blocks.
system.cpu.dtb_walker_cache.tags.warmup_cycle            0                       # Cycle when the warmup percentage was hit.
system.cpu.dtb_walker_cache.tags.tag_accesses            0                       # Number of tag accesses
system.cpu.dtb_walker_cache.tags.data_accesses            0                       # Number of data accesses
system.cpu.dcache.pwrStateResidencyTicks::UNDEFINED 448303068067000                       # Cumulative time (in ticks) in various power states
system.cpu.dcache.demand_hits::.switch_cpus.data     15548012                       # number of demand (read+write) hits
system.cpu.dcache.demand_hits::total         15548012                       # number of demand (read+write) hits
system.cpu.dcache.overall_hits::.switch_cpus.data     15548012                       # number of overall hits
system.cpu.dcache.overall_hits::total        15548012                       # number of overall hits
system.cpu.dcache.demand_misses::.cpu.data            4                       # number of demand (read+write) misses
system.cpu.dcache.demand_misses::.switch_cpus.data      3085698                       # number of demand (read+write) misses
system.cpu.dcache.demand_misses::total        3085702                       # number of demand (read+write) misses
system.cpu.dcache.overall_misses::.cpu.data            4                       # number of overall misses
system.cpu.dcache.overall_misses::.switch_cpus.data      3085698                       # number of overall misses
system.cpu.dcache.overall_misses::total       3085702                       # number of overall misses
system.cpu.dcache.demand_miss_latency::.switch_cpus.data 189052416000                       # number of demand (read+write) miss cycles
system.cpu.dcache.demand_miss_latency::total 189052416000                       # number of demand (read+write) miss cycles
system.cpu.dcache.overall_miss_latency::.switch_cpus.data 189052416000                       # number of overall miss cycles
system.cpu.dcache.overall_miss_latency::total 189052416000                       # number of overall miss cycles
system.cpu.dcache.demand_accesses::.cpu.data            4                       # number of demand (read+write) accesses
system.cpu.dcache.demand_accesses::.switch_cpus.data     18633710                       # number of demand (read+write) accesses
system.cpu.dcache.demand_accesses::total     18633714                       # number of demand (read+write) accesses
system.cpu.dcache.overall_accesses::.cpu.data            4                       # number of overall (read+write) accesses
system.cpu.dcache.overall_accesses::.switch_cpus.data     18633710                       # number of overall (read+write) accesses
system.cpu.dcache.overall_accesses::total     18633714                       # number of overall (read+write) accesses
system.cpu.dcache.demand_miss_rate::.cpu.data            1                       # miss rate for demand accesses
system.cpu.dcache.demand_miss_rate::.switch_cpus.data     0.165598                       # miss rate for demand accesses
system.cpu.dcache.demand_miss_rate::total     0.165598                       # miss rate for demand accesses
system.cpu.dcache.overall_miss_rate::.cpu.data            1                       # miss rate for overall accesses
system.cpu.dcache.overall_miss_rate::.switch_cpus.data     0.165598                       # miss rate for overall accesses
system.cpu.dcache.overall_miss_rate::total     0.165598                       # miss rate for overall accesses
system.cpu.dcache.demand_avg_miss_latency::.switch_cpus.data 61267.310022                       # average overall miss latency
system.cpu.dcache.demand_avg_miss_latency::total 61267.230601                       # average overall miss latency
system.cpu.dcache.overall_avg_miss_latency::.switch_cpus.data 61267.310022                       # average overall miss latency
system.cpu.dcache.overall_avg_miss_latency::total 61267.230601                       # average overall miss latency
system.cpu.dcache.blocked_cycles::no_mshrs         3136                       # number of cycles access was blocked
system.cpu.dcache.blocked_cycles::no_targets            0                       # number of cycles access was blocked
system.cpu.dcache.blocked::no_mshrs                68                       # number of cycles access was blocked
system.cpu.dcache.blocked::no_targets               0                       # number of cycles access was blocked
system.cpu.dcache.avg_blocked_cycles::no_mshrs    46.117647                       # average number of cycles each access was blocked
system.cpu.dcache.avg_blocked_cycles::no_targets          nan                       # average number of cycles each access was blocked
system.cpu.dcache.writebacks::.writebacks          272                       # number of writebacks
system.cpu.dcache.writebacks::total               272                       # number of writebacks
system.cpu.dcache.demand_mshr_hits::.switch_cpus.data      2675172                       # number of demand (read+write) MSHR hits
system.cpu.dcache.demand_mshr_hits::total      2675172                       # number of demand (read+write) MSHR hits
system.cpu.dcache.overall_mshr_hits::.switch_cpus.data      2675172                       # number of overall MSHR hits
system.cpu.dcache.overall_mshr_hits::total      2675172                       # number of overall MSHR hits
system.cpu.dcache.demand_mshr_misses::.switch_cpus.data       410526                       # number of demand (read+write) MSHR misses
system.cpu.dcache.demand_mshr_misses::total       410526                       # number of demand (read+write) MSHR misses
system.cpu.dcache.overall_mshr_misses::.switch_cpus.data       410526                       # number of overall MSHR misses
system.cpu.dcache.overall_mshr_misses::total       410526                       # number of overall MSHR misses
system.cpu.dcache.demand_mshr_miss_latency::.switch_cpus.data  29481279000                       # number of demand (read+write) MSHR miss cycles
system.cpu.dcache.demand_mshr_miss_latency::total  29481279000                       # number of demand (read+write) MSHR miss cycles
system.cpu.dcache.overall_mshr_miss_latency::.switch_cpus.data  29481279000                       # number of overall MSHR miss cycles
system.cpu.dcache.overall_mshr_miss_latency::total  29481279000                       # number of overall MSHR miss cycles
system.cpu.dcache.demand_mshr_miss_rate::.switch_cpus.data     0.022031                       # mshr miss rate for demand accesses
system.cpu.dcache.demand_mshr_miss_rate::total     0.022031                       # mshr miss rate for demand accesses
system.cpu.dcache.overall_mshr_miss_rate::.switch_cpus.data     0.022031                       # mshr miss rate for overall accesses
system.cpu.dcache.overall_mshr_miss_rate::total     0.022031                       # mshr miss rate for overall accesses
system.cpu.dcache.demand_avg_mshr_miss_latency::.switch_cpus.data 71813.427164                       # average overall mshr miss latency
system.cpu.dcache.demand_avg_mshr_miss_latency::total 71813.427164                       # average overall mshr miss latency
system.cpu.dcache.overall_avg_mshr_miss_latency::.switch_cpus.data 71813.427164                       # average overall mshr miss latency
system.cpu.dcache.overall_avg_mshr_miss_latency::total 71813.427164                       # average overall mshr miss latency
system.cpu.dcache.replacements                 409506                       # number of replacements
system.cpu.dcache.ReadReq_hits::.switch_cpus.data     14999166                       # number of ReadReq hits
system.cpu.dcache.ReadReq_hits::total        14999166                       # number of ReadReq hits
system.cpu.dcache.ReadReq_misses::.cpu.data            4                       # number of ReadReq misses
system.cpu.dcache.ReadReq_misses::.switch_cpus.data      3085623                       # number of ReadReq misses
system.cpu.dcache.ReadReq_misses::total       3085627                       # number of ReadReq misses
system.cpu.dcache.ReadReq_miss_latency::.switch_cpus.data 189049450000                       # number of ReadReq miss cycles
system.cpu.dcache.ReadReq_miss_latency::total 189049450000                       # number of ReadReq miss cycles
system.cpu.dcache.ReadReq_accesses::.cpu.data            4                       # number of ReadReq accesses(hits+misses)
system.cpu.dcache.ReadReq_accesses::.switch_cpus.data     18084789                       # number of ReadReq accesses(hits+misses)
system.cpu.dcache.ReadReq_accesses::total     18084793                       # number of ReadReq accesses(hits+misses)
system.cpu.dcache.ReadReq_miss_rate::.cpu.data            1                       # miss rate for ReadReq accesses
system.cpu.dcache.ReadReq_miss_rate::.switch_cpus.data     0.170620                       # miss rate for ReadReq accesses
system.cpu.dcache.ReadReq_miss_rate::total     0.170620                       # miss rate for ReadReq accesses
system.cpu.dcache.ReadReq_avg_miss_latency::.switch_cpus.data 61267.837970                       # average ReadReq miss latency
system.cpu.dcache.ReadReq_avg_miss_latency::total 61267.758546                       # average ReadReq miss latency
system.cpu.dcache.ReadReq_mshr_hits::.switch_cpus.data      2675154                       # number of ReadReq MSHR hits
system.cpu.dcache.ReadReq_mshr_hits::total      2675154                       # number of ReadReq MSHR hits
system.cpu.dcache.ReadReq_mshr_misses::.switch_cpus.data       410469                       # number of ReadReq MSHR misses
system.cpu.dcache.ReadReq_mshr_misses::total       410469                       # number of ReadReq MSHR misses
system.cpu.dcache.ReadReq_mshr_miss_latency::.switch_cpus.data  29478852500                       # number of ReadReq MSHR miss cycles
system.cpu.dcache.ReadReq_mshr_miss_latency::total  29478852500                       # number of ReadReq MSHR miss cycles
system.cpu.dcache.ReadReq_mshr_miss_rate::.switch_cpus.data     0.022697                       # mshr miss rate for ReadReq accesses
system.cpu.dcache.ReadReq_mshr_miss_rate::total     0.022697                       # mshr miss rate for ReadReq accesses
system.cpu.dcache.ReadReq_avg_mshr_miss_latency::.switch_cpus.data 71817.488044                       # average ReadReq mshr miss latency
system.cpu.dcache.ReadReq_avg_mshr_miss_latency::total 71817.488044                       # average ReadReq mshr miss latency
system.cpu.dcache.WriteReq_hits::.switch_cpus.data       548846                       # number of WriteReq hits
system.cpu.dcache.WriteReq_hits::total         548846                       # number of WriteReq hits
system.cpu.dcache.WriteReq_misses::.switch_cpus.data           75                       # number of WriteReq misses
system.cpu.dcache.WriteReq_misses::total           75                       # number of WriteReq misses
system.cpu.dcache.WriteReq_miss_latency::.switch_cpus.data      2966000                       # number of WriteReq miss cycles
system.cpu.dcache.WriteReq_miss_latency::total      2966000                       # number of WriteReq miss cycles
system.cpu.dcache.WriteReq_accesses::.switch_cpus.data       548921                       # number of WriteReq accesses(hits+misses)
system.cpu.dcache.WriteReq_accesses::total       548921                       # number of WriteReq accesses(hits+misses)
system.cpu.dcache.WriteReq_miss_rate::.switch_cpus.data     0.000137                       # miss rate for WriteReq accesses
system.cpu.dcache.WriteReq_miss_rate::total     0.000137                       # miss rate for WriteReq accesses
system.cpu.dcache.WriteReq_avg_miss_latency::.switch_cpus.data 39546.666667                       # average WriteReq miss latency
system.cpu.dcache.WriteReq_avg_miss_latency::total 39546.666667                       # average WriteReq miss latency
system.cpu.dcache.WriteReq_mshr_hits::.switch_cpus.data           18                       # number of WriteReq MSHR hits
system.cpu.dcache.WriteReq_mshr_hits::total           18                       # number of WriteReq MSHR hits
system.cpu.dcache.WriteReq_mshr_misses::.switch_cpus.data           57                       # number of WriteReq MSHR misses
system.cpu.dcache.WriteReq_mshr_misses::total           57                       # number of WriteReq MSHR misses
system.cpu.dcache.WriteReq_mshr_miss_latency::.switch_cpus.data      2426500                       # number of WriteReq MSHR miss cycles
system.cpu.dcache.WriteReq_mshr_miss_latency::total      2426500                       # number of WriteReq MSHR miss cycles
system.cpu.dcache.WriteReq_mshr_miss_rate::.switch_cpus.data     0.000104                       # mshr miss rate for WriteReq accesses
system.cpu.dcache.WriteReq_mshr_miss_rate::total     0.000104                       # mshr miss rate for WriteReq accesses
system.cpu.dcache.WriteReq_avg_mshr_miss_latency::.switch_cpus.data 42570.175439                       # average WriteReq mshr miss latency
system.cpu.dcache.WriteReq_avg_mshr_miss_latency::total 42570.175439                       # average WriteReq mshr miss latency
system.cpu.dcache.tags.pwrStateResidencyTicks::UNDEFINED 448303068067000                       # Cumulative time (in ticks) in various power states
system.cpu.dcache.tags.tagsinuse             0.066617                       # Cycle average of tags in use
system.cpu.dcache.tags.total_refs            15958542                       # Total number of references to valid blocks.
system.cpu.dcache.tags.sampled_refs            410530                       # Sample count of references to valid blocks.
system.cpu.dcache.tags.avg_refs             38.873023                       # Average number of references to valid blocks.
system.cpu.dcache.tags.warmup_cycle      448273855041500                       # Cycle when the warmup percentage was hit.
system.cpu.dcache.tags.occ_blocks::.cpu.data     0.000001                       # Average occupied blocks per requestor
system.cpu.dcache.tags.occ_blocks::.switch_cpus.data     0.066617                       # Average occupied blocks per requestor
system.cpu.dcache.tags.occ_percent::.cpu.data     0.000000                       # Average percentage of cache occupancy
system.cpu.dcache.tags.occ_percent::.switch_cpus.data     0.000065                       # Average percentage of cache occupancy
system.cpu.dcache.tags.occ_percent::total     0.000065                       # Average percentage of cache occupancy
system.cpu.dcache.tags.occ_task_id_blocks::1024         1024                       # Occupied blocks per task id
system.cpu.dcache.tags.age_task_id_blocks_1024::0          159                       # Occupied blocks per task id
system.cpu.dcache.tags.age_task_id_blocks_1024::1          864                       # Occupied blocks per task id
system.cpu.dcache.tags.age_task_id_blocks_1024::4            1                       # Occupied blocks per task id
system.cpu.dcache.tags.occ_task_id_percent::1024            1                       # Percentage of cache occupancy per task id
system.cpu.dcache.tags.tag_accesses          37677958                       # Number of tag accesses
system.cpu.dcache.tags.data_accesses         37677958                       # Number of data accesses

---------- End Simulation Statistics   ----------
