
---------- Begin Simulation Statistics ----------
final_tick                               359103646109500                       # Number of ticks from beginning of simulation (restored from checkpoints and never reset)
host_inst_rate                                  19779                       # Simulator instruction rate (inst/s)
host_mem_usage                                 807240                       # Number of bytes of host memory used
host_op_rate                                    33379                       # Simulator op (including micro ops) rate (op/s)
host_seconds                                   505.60                       # Real time elapsed on the host
host_tick_rate                               18074124                       # Simulator tick rate (ticks/s)
sim_freq                                 1000000000000                       # Frequency of simulated ticks
sim_insts                                    10000009                       # Number of instructions simulated
sim_ops                                      16876344                       # Number of ops (including micro ops) simulated
sim_seconds                                  0.009138                       # Number of seconds simulated
sim_ticks                                  9138269500                       # Number of ticks simulated
system.cpu.Branches                                 1                       # Number of branches fetched
system.cpu.committedInsts                           8                       # Number of instructions committed
system.cpu.committedOps                            16                       # Number of ops (including micro ops) committed
system.cpu.dtb.rdAccesses                           4                       # TLB accesses on read requests
system.cpu.dtb.rdMisses                             0                       # TLB misses on read requests
system.cpu.dtb.wrAccesses                           0                       # TLB accesses on write requests
system.cpu.dtb.wrMisses                             0                       # TLB misses on write requests
system.cpu.idle_fraction                            0                       # Percentage of idle cycles
system.cpu.itb.rdAccesses                           0                       # TLB accesses on read requests
system.cpu.itb.rdMisses                             0                       # TLB misses on read requests
system.cpu.itb.wrAccesses                          12                       # TLB accesses on write requests
system.cpu.itb.wrMisses                             0                       # TLB misses on write requests
system.cpu.not_idle_fraction                        1                       # Percentage of non-idle cycles
system.cpu.numCycles                               20                       # number of cpu cycles simulated
system.cpu.numWorkItemsCompleted                    0                       # number of work items this cpu completed
system.cpu.numWorkItemsStarted                      0                       # number of work items this cpu started
system.cpu.num_busy_cycles                         20                       # Number of busy cycles
system.cpu.num_cc_register_reads                    5                       # number of times the CC registers were read
system.cpu.num_conditional_control_insts            1                       # number of instructions that are conditional controls
system.cpu.num_fp_alu_accesses                     13                       # Number of float alu accesses
system.cpu.num_fp_insts                            13                       # number of float instructions
system.cpu.num_fp_register_reads                   20                       # number of times the floating registers were read
system.cpu.num_fp_register_writes                  13                       # number of times the floating registers were written
system.cpu.num_func_calls                           0                       # number of times a function call or return occured
system.cpu.num_idle_cycles                          0                       # Number of idle cycles
system.cpu.num_int_alu_accesses                     6                       # Number of integer alu accesses
system.cpu.num_int_insts                            6                       # number of integer instructions
system.cpu.num_int_register_reads                  13                       # number of times the integer registers were read
system.cpu.num_int_register_writes                  2                       # number of times the integer registers were written
system.cpu.num_load_insts                           3                       # Number of load instructions
system.cpu.num_mem_refs                             3                       # number of memory refs
system.cpu.num_store_insts                          0                       # Number of store instructions
system.cpu.num_vec_alu_accesses                     0                       # Number of vector alu accesses
system.cpu.num_vec_insts                            0                       # number of vector instructions
system.cpu.num_vec_register_reads                   0                       # number of times the vector registers were read
system.cpu.num_vec_register_writes                  0                       # number of times the vector registers were written
system.cpu.op_class::No_OpClass                     0      0.00%      0.00% # Class of executed instruction
system.cpu.op_class::IntAlu                         5     31.25%     31.25% # Class of executed instruction
system.cpu.op_class::IntMult                        0      0.00%     31.25% # Class of executed instruction
system.cpu.op_class::IntDiv                         0      0.00%     31.25% # Class of executed instruction
system.cpu.op_class::FloatAdd                       2     12.50%     43.75% # Class of executed instruction
system.cpu.op_class::FloatCmp                       0      0.00%     43.75% # Class of executed instruction
system.cpu.op_class::FloatCvt                       0      0.00%     43.75% # Class of executed instruction
system.cpu.op_class::FloatMult                      0      0.00%     43.75% # Class of executed instruction
system.cpu.op_class::FloatMultAcc                   0      0.00%     43.75% # Class of executed instruction
system.cpu.op_class::FloatDiv                       0      0.00%     43.75% # Class of executed instruction
system.cpu.op_class::FloatMisc                      0      0.00%     43.75% # Class of executed instruction
system.cpu.op_class::FloatSqrt                      0      0.00%     43.75% # Class of executed instruction
system.cpu.op_class::SimdAdd                        0      0.00%     43.75% # Class of executed instruction
system.cpu.op_class::SimdAddAcc                     0      0.00%     43.75% # Class of executed instruction
system.cpu.op_class::SimdAlu                        2     12.50%     56.25% # Class of executed instruction
system.cpu.op_class::SimdCmp                        0      0.00%     56.25% # Class of executed instruction
system.cpu.op_class::SimdCvt                        0      0.00%     56.25% # Class of executed instruction
system.cpu.op_class::SimdMisc                       0      0.00%     56.25% # Class of executed instruction
system.cpu.op_class::SimdMult                       0      0.00%     56.25% # Class of executed instruction
system.cpu.op_class::SimdMultAcc                    0      0.00%     56.25% # Class of executed instruction
system.cpu.op_class::SimdShift                      0      0.00%     56.25% # Class of executed instruction
system.cpu.op_class::SimdShiftAcc                   0      0.00%     56.25% # Class of executed instruction
system.cpu.op_class::SimdDiv                        0      0.00%     56.25% # Class of executed instruction
system.cpu.op_class::SimdSqrt                       0      0.00%     56.25% # Class of executed instruction
system.cpu.op_class::SimdFloatAdd                   3     18.75%     75.00% # Class of executed instruction
system.cpu.op_class::SimdFloatAlu                   0      0.00%     75.00% # Class of executed instruction
system.cpu.op_class::SimdFloatCmp                   0      0.00%     75.00% # Class of executed instruction
system.cpu.op_class::SimdFloatCvt                   0      0.00%     75.00% # Class of executed instruction
system.cpu.op_class::SimdFloatDiv                   0      0.00%     75.00% # Class of executed instruction
system.cpu.op_class::SimdFloatMisc                  0      0.00%     75.00% # Class of executed instruction
system.cpu.op_class::SimdFloatMult                  1      6.25%     81.25% # Class of executed instruction
system.cpu.op_class::SimdFloatMultAcc               0      0.00%     81.25% # Class of executed instruction
system.cpu.op_class::SimdFloatSqrt                  0      0.00%     81.25% # Class of executed instruction
system.cpu.op_class::SimdReduceAdd                  0      0.00%     81.25% # Class of executed instruction
system.cpu.op_class::SimdReduceAlu                  0      0.00%     81.25% # Class of executed instruction
system.cpu.op_class::SimdReduceCmp                  0      0.00%     81.25% # Class of executed instruction
system.cpu.op_class::SimdFloatReduceAdd             0      0.00%     81.25% # Class of executed instruction
system.cpu.op_class::SimdFloatReduceCmp             0      0.00%     81.25% # Class of executed instruction
system.cpu.op_class::SimdAes                        0      0.00%     81.25% # Class of executed instruction
system.cpu.op_class::SimdAesMix                     0      0.00%     81.25% # Class of executed instruction
system.cpu.op_class::SimdSha1Hash                   0      0.00%     81.25% # Class of executed instruction
system.cpu.op_class::SimdSha1Hash2                  0      0.00%     81.25% # Class of executed instruction
system.cpu.op_class::SimdSha256Hash                 0      0.00%     81.25% # Class of executed instruction
system.cpu.op_class::SimdSha256Hash2                0      0.00%     81.25% # Class of executed instruction
system.cpu.op_class::SimdShaSigma2                  0      0.00%     81.25% # Class of executed instruction
system.cpu.op_class::SimdShaSigma3                  0      0.00%     81.25% # Class of executed instruction
system.cpu.op_class::SimdPredAlu                    0      0.00%     81.25% # Class of executed instruction
system.cpu.op_class::MemRead                        0      0.00%     81.25% # Class of executed instruction
system.cpu.op_class::MemWrite                       0      0.00%     81.25% # Class of executed instruction
system.cpu.op_class::FloatMemRead                   3     18.75%    100.00% # Class of executed instruction
system.cpu.op_class::FloatMemWrite                  0      0.00%    100.00% # Class of executed instruction
system.cpu.op_class::IprAccess                      0      0.00%    100.00% # Class of executed instruction
system.cpu.op_class::InstPrefetch                   0      0.00%    100.00% # Class of executed instruction
system.cpu.op_class::total                         16                       # Class of executed instruction
system.cpu.workload.numSyscalls                     0                       # Number of system calls
system.membus.snoop_filter.hit_multi_requests            0                       # Number of requests hitting in the snoop filter with multiple (>1) holders of the requested data.
system.membus.snoop_filter.hit_multi_snoops            0                       # Number of snoops hitting in the snoop filter with multiple (>1) holders of the requested data.
system.membus.snoop_filter.hit_single_requests       156648                       # Number of requests hitting in the snoop filter with a single holder of the requested data.
system.membus.snoop_filter.hit_single_snoops            0                       # Number of snoops hitting in the snoop filter with a single holder of the requested data.
system.membus.snoop_filter.tot_requests        321953                       # Total number of requests made to the snoop filter.
system.membus.snoop_filter.tot_snoops               0                       # Total number of snoops made to the snoop filter.
system.switch_cpus.branchPred.BTBCorrect            0                       # Number of correct BTB predictions (this stat may not work properly.
system.switch_cpus.branchPred.BTBHitPct      0.000000                       # BTB Hit Percentage
system.switch_cpus.branchPred.BTBHits               0                       # Number of BTB hits
system.switch_cpus.branchPred.BTBLookups      1367562                       # Number of BTB lookups
system.switch_cpus.branchPred.RASInCorrect           21                       # Number of incorrect RAS predictions.
system.switch_cpus.branchPred.condIncorrect        77494                       # Number of conditional branches incorrect
system.switch_cpus.branchPred.condPredicted      1401354                       # Number of conditional branches predicted
system.switch_cpus.branchPred.indirectHits      1019876                       # Number of indirect target hits.
system.switch_cpus.branchPred.indirectLookups      1367562                       # Number of indirect predictor lookups.
system.switch_cpus.branchPred.indirectMisses       347686                       # Number of indirect misses.
system.switch_cpus.branchPred.lookups         1500953                       # Number of BP lookups
system.switch_cpus.branchPred.usedRAS           48814                       # Number of times the RAS was used to get a target.
system.switch_cpus.branchPredindirectMispredicted        20208                       # Number of mispredicted indirect branches.
system.switch_cpus.cc_regfile_reads           6486878                       # number of cc regfile reads
system.switch_cpus.cc_regfile_writes          4456432                       # number of cc regfile writes
system.switch_cpus.commit.amos                      0                       # Number of atomic instructions committed
system.switch_cpus.commit.branchMispredicts        77562                       # The number of times a branch was mispredicted
system.switch_cpus.commit.branches            1049066                       # Number of branches committed
system.switch_cpus.commit.bw_lim_events       1448872                       # number cycles where commit BW limit reached
system.switch_cpus.commit.commitSquashedInsts      3044231                       # The number of squashed insts skipped by commit
system.switch_cpus.commit.committedInsts     10000001                       # Number of instructions committed
system.switch_cpus.commit.committedOps       16876328                       # Number of ops (including micro ops) committed
system.switch_cpus.commit.committed_per_cycle::samples     17792823                       # Number of insts commited each cycle
system.switch_cpus.commit.committed_per_cycle::mean     0.948491                       # Number of insts commited each cycle
system.switch_cpus.commit.committed_per_cycle::stdev     2.337177                       # Number of insts commited each cycle
system.switch_cpus.commit.committed_per_cycle::underflows            0      0.00%      0.00% # Number of insts commited each cycle
system.switch_cpus.commit.committed_per_cycle::0     14374889     80.79%     80.79% # Number of insts commited each cycle
system.switch_cpus.commit.committed_per_cycle::1       877761      4.93%     85.72% # Number of insts commited each cycle
system.switch_cpus.commit.committed_per_cycle::2       136880      0.77%     86.49% # Number of insts commited each cycle
system.switch_cpus.commit.committed_per_cycle::3       218915      1.23%     87.72% # Number of insts commited each cycle
system.switch_cpus.commit.committed_per_cycle::4       390385      2.19%     89.92% # Number of insts commited each cycle
system.switch_cpus.commit.committed_per_cycle::5       210988      1.19%     91.10% # Number of insts commited each cycle
system.switch_cpus.commit.committed_per_cycle::6        78325      0.44%     91.54% # Number of insts commited each cycle
system.switch_cpus.commit.committed_per_cycle::7        55808      0.31%     91.86% # Number of insts commited each cycle
system.switch_cpus.commit.committed_per_cycle::8      1448872      8.14%    100.00% # Number of insts commited each cycle
system.switch_cpus.commit.committed_per_cycle::overflows            0      0.00%    100.00% # Number of insts commited each cycle
system.switch_cpus.commit.committed_per_cycle::min_value            0                       # Number of insts commited each cycle
system.switch_cpus.commit.committed_per_cycle::max_value            8                       # Number of insts commited each cycle
system.switch_cpus.commit.committed_per_cycle::total     17792823                       # Number of insts commited each cycle
system.switch_cpus.commit.fp_insts            8713194                       # Number of committed floating point instructions.
system.switch_cpus.commit.function_calls        26226                       # Number of function calls committed.
system.switch_cpus.commit.int_insts          10019631                       # Number of committed integer instructions.
system.switch_cpus.commit.loads               2743170                       # Number of loads committed
system.switch_cpus.commit.membars                   0                       # Number of memory barriers committed
system.switch_cpus.commit.op_class_0::No_OpClass        27517      0.16%      0.16% # Class of committed instruction
system.switch_cpus.commit.op_class_0::IntAlu      7410720     43.91%     44.07% # Class of committed instruction
system.switch_cpus.commit.op_class_0::IntMult          119      0.00%     44.08% # Class of committed instruction
system.switch_cpus.commit.op_class_0::IntDiv           56      0.00%     44.08% # Class of committed instruction
system.switch_cpus.commit.op_class_0::FloatAdd       891416      5.28%     49.36% # Class of committed instruction
system.switch_cpus.commit.op_class_0::FloatCmp            0      0.00%     49.36% # Class of committed instruction
system.switch_cpus.commit.op_class_0::FloatCvt            0      0.00%     49.36% # Class of committed instruction
system.switch_cpus.commit.op_class_0::FloatMult            0      0.00%     49.36% # Class of committed instruction
system.switch_cpus.commit.op_class_0::FloatMultAcc            0      0.00%     49.36% # Class of committed instruction
system.switch_cpus.commit.op_class_0::FloatDiv            0      0.00%     49.36% # Class of committed instruction
system.switch_cpus.commit.op_class_0::FloatMisc            0      0.00%     49.36% # Class of committed instruction
system.switch_cpus.commit.op_class_0::FloatSqrt            0      0.00%     49.36% # Class of committed instruction
system.switch_cpus.commit.op_class_0::SimdAdd            0      0.00%     49.36% # Class of committed instruction
system.switch_cpus.commit.op_class_0::SimdAddAcc            0      0.00%     49.36% # Class of committed instruction
system.switch_cpus.commit.op_class_0::SimdAlu      1379320      8.17%     57.53% # Class of committed instruction
system.switch_cpus.commit.op_class_0::SimdCmp            0      0.00%     57.53% # Class of committed instruction
system.switch_cpus.commit.op_class_0::SimdCvt            4      0.00%     57.53% # Class of committed instruction
system.switch_cpus.commit.op_class_0::SimdMisc        34436      0.20%     57.74% # Class of committed instruction
system.switch_cpus.commit.op_class_0::SimdMult            0      0.00%     57.74% # Class of committed instruction
system.switch_cpus.commit.op_class_0::SimdMultAcc            0      0.00%     57.74% # Class of committed instruction
system.switch_cpus.commit.op_class_0::SimdShift            0      0.00%     57.74% # Class of committed instruction
system.switch_cpus.commit.op_class_0::SimdShiftAcc            0      0.00%     57.74% # Class of committed instruction
system.switch_cpus.commit.op_class_0::SimdDiv            0      0.00%     57.74% # Class of committed instruction
system.switch_cpus.commit.op_class_0::SimdSqrt            0      0.00%     57.74% # Class of committed instruction
system.switch_cpus.commit.op_class_0::SimdFloatAdd      1310530      7.77%     65.50% # Class of committed instruction
system.switch_cpus.commit.op_class_0::SimdFloatAlu            0      0.00%     65.50% # Class of committed instruction
system.switch_cpus.commit.op_class_0::SimdFloatCmp        15450      0.09%     65.59% # Class of committed instruction
system.switch_cpus.commit.op_class_0::SimdFloatCvt      1398264      8.29%     73.88% # Class of committed instruction
system.switch_cpus.commit.op_class_0::SimdFloatDiv            0      0.00%     73.88% # Class of committed instruction
system.switch_cpus.commit.op_class_0::SimdFloatMisc            0      0.00%     73.88% # Class of committed instruction
system.switch_cpus.commit.op_class_0::SimdFloatMult      1344926      7.97%     81.85% # Class of committed instruction
system.switch_cpus.commit.op_class_0::SimdFloatMultAcc            0      0.00%     81.85% # Class of committed instruction
system.switch_cpus.commit.op_class_0::SimdFloatSqrt            0      0.00%     81.85% # Class of committed instruction
system.switch_cpus.commit.op_class_0::SimdReduceAdd            0      0.00%     81.85% # Class of committed instruction
system.switch_cpus.commit.op_class_0::SimdReduceAlu            0      0.00%     81.85% # Class of committed instruction
system.switch_cpus.commit.op_class_0::SimdReduceCmp            0      0.00%     81.85% # Class of committed instruction
system.switch_cpus.commit.op_class_0::SimdFloatReduceAdd            0      0.00%     81.85% # Class of committed instruction
system.switch_cpus.commit.op_class_0::SimdFloatReduceCmp            0      0.00%     81.85% # Class of committed instruction
system.switch_cpus.commit.op_class_0::SimdAes            0      0.00%     81.85% # Class of committed instruction
system.switch_cpus.commit.op_class_0::SimdAesMix            0      0.00%     81.85% # Class of committed instruction
system.switch_cpus.commit.op_class_0::SimdSha1Hash            0      0.00%     81.85% # Class of committed instruction
system.switch_cpus.commit.op_class_0::SimdSha1Hash2            0      0.00%     81.85% # Class of committed instruction
system.switch_cpus.commit.op_class_0::SimdSha256Hash            0      0.00%     81.85% # Class of committed instruction
system.switch_cpus.commit.op_class_0::SimdSha256Hash2            0      0.00%     81.85% # Class of committed instruction
system.switch_cpus.commit.op_class_0::SimdShaSigma2            0      0.00%     81.85% # Class of committed instruction
system.switch_cpus.commit.op_class_0::SimdShaSigma3            0      0.00%     81.85% # Class of committed instruction
system.switch_cpus.commit.op_class_0::SimdPredAlu            0      0.00%     81.85% # Class of committed instruction
system.switch_cpus.commit.op_class_0::MemRead       937733      5.56%     87.40% # Class of committed instruction
system.switch_cpus.commit.op_class_0::MemWrite       275299      1.63%     89.03% # Class of committed instruction
system.switch_cpus.commit.op_class_0::FloatMemRead      1805437     10.70%     99.73% # Class of committed instruction
system.switch_cpus.commit.op_class_0::FloatMemWrite        45101      0.27%    100.00% # Class of committed instruction
system.switch_cpus.commit.op_class_0::IprAccess            0      0.00%    100.00% # Class of committed instruction
system.switch_cpus.commit.op_class_0::InstPrefetch            0      0.00%    100.00% # Class of committed instruction
system.switch_cpus.commit.op_class_0::total     16876328                       # Class of committed instruction
system.switch_cpus.commit.refs                3063570                       # Number of memory references committed
system.switch_cpus.commit.swp_count                 0                       # Number of s/w prefetches committed
system.switch_cpus.commit.vec_insts                 0                       # Number of committed Vector instructions.
system.switch_cpus.committedInsts            10000001                       # Number of Instructions Simulated
system.switch_cpus.committedOps              16876328                       # Number of Ops (including micro ops) Simulated
system.switch_cpus.cpi                       1.827652                       # CPI: Cycles Per Instruction
system.switch_cpus.cpi_total                 1.827652                       # CPI: Total CPI of All Threads
system.switch_cpus.decode.BlockedCycles      13968362                       # Number of cycles decode is blocked
system.switch_cpus.decode.DecodedInsts       20848887                       # Number of instructions handled by decode
system.switch_cpus.decode.IdleCycles          1192573                       # Number of cycles decode is idle
system.switch_cpus.decode.RunCycles           2165867                       # Number of cycles decode is running
system.switch_cpus.decode.SquashCycles          77824                       # Number of cycles decode is squashing
system.switch_cpus.decode.UnblockCycles        817634                       # Number of cycles decode is unblocking
system.switch_cpus.dtb.rdAccesses             3215990                       # TLB accesses on read requests
system.switch_cpus.dtb.rdMisses                 15599                       # TLB misses on read requests
system.switch_cpus.dtb.wrAccesses              368885                       # TLB accesses on write requests
system.switch_cpus.dtb.wrMisses                  1276                       # TLB misses on write requests
system.switch_cpus.fetch.Branches             1500953                       # Number of branches that fetch encountered
system.switch_cpus.fetch.CacheLines           1742767                       # Number of cache lines fetched
system.switch_cpus.fetch.Cycles              16334293                       # Number of cycles fetch has run and was not squashing or blocked
system.switch_cpus.fetch.IcacheSquashes         17179                       # Number of outstanding Icache misses that were squashed
system.switch_cpus.fetch.IcacheWaitRetryStallCycles          116                       # Number of stall cycles due to full MSHR
system.switch_cpus.fetch.Insts               13073429                       # Number of instructions fetch has processed
system.switch_cpus.fetch.MiscStallCycles           66                       # Number of cycles fetch has spent waiting on interrupts, or bad addresses, or out of MSHRs
system.switch_cpus.fetch.PendingTrapStallCycles         3241                       # Number of stall cycles due to pending traps
system.switch_cpus.fetch.SquashCycles          155648                       # Number of cycles fetch has spent squashing
system.switch_cpus.fetch.branchRate          0.082125                       # Number of branch fetches per cycle
system.switch_cpus.fetch.icacheStallCycles      1806724                       # Number of cycles fetch is stalled on an Icache miss
system.switch_cpus.fetch.predictedBranches      1068690                       # Number of branches that fetch has predicted taken
system.switch_cpus.fetch.rate                0.715313                       # Number of inst fetches per cycle
system.switch_cpus.fetch.rateDist::samples     18222264                       # Number of instructions fetched each cycle (Total)
system.switch_cpus.fetch.rateDist::mean      1.215904                       # Number of instructions fetched each cycle (Total)
system.switch_cpus.fetch.rateDist::stdev     2.616658                       # Number of instructions fetched each cycle (Total)
system.switch_cpus.fetch.rateDist::underflows            0      0.00%      0.00% # Number of instructions fetched each cycle (Total)
system.switch_cpus.fetch.rateDist::0         14465952     79.39%     79.39% # Number of instructions fetched each cycle (Total)
system.switch_cpus.fetch.rateDist::1           277746      1.52%     80.91% # Number of instructions fetched each cycle (Total)
system.switch_cpus.fetch.rateDist::2           210884      1.16%     82.07% # Number of instructions fetched each cycle (Total)
system.switch_cpus.fetch.rateDist::3           226239      1.24%     83.31% # Number of instructions fetched each cycle (Total)
system.switch_cpus.fetch.rateDist::4           323497      1.78%     85.08% # Number of instructions fetched each cycle (Total)
system.switch_cpus.fetch.rateDist::5           387705      2.13%     87.21% # Number of instructions fetched each cycle (Total)
system.switch_cpus.fetch.rateDist::6           493462      2.71%     89.92% # Number of instructions fetched each cycle (Total)
system.switch_cpus.fetch.rateDist::7           109221      0.60%     90.52% # Number of instructions fetched each cycle (Total)
system.switch_cpus.fetch.rateDist::8          1727558      9.48%    100.00% # Number of instructions fetched each cycle (Total)
system.switch_cpus.fetch.rateDist::overflows            0      0.00%    100.00% # Number of instructions fetched each cycle (Total)
system.switch_cpus.fetch.rateDist::min_value            0                       # Number of instructions fetched each cycle (Total)
system.switch_cpus.fetch.rateDist::max_value            8                       # Number of instructions fetched each cycle (Total)
system.switch_cpus.fetch.rateDist::total     18222264                       # Number of instructions fetched each cycle (Total)
system.switch_cpus.fp_regfile_reads          14831520                       # number of floating regfile reads
system.switch_cpus.fp_regfile_writes          8823860                       # number of floating regfile writes
system.switch_cpus.idleCycles                   54255                       # Total number of cycles that the CPU has spent unscheduled due to idling
system.switch_cpus.iew.branchMispredicts        87506                       # Number of branch mispredicts detected at execute
system.switch_cpus.iew.exec_branches          1166765                       # Number of branches executed
system.switch_cpus.iew.exec_nop                     0                       # number of nop insts executed
system.switch_cpus.iew.exec_rate             1.035716                       # Inst execution rate
system.switch_cpus.iew.exec_refs              3667401                       # number of memory reference insts executed
system.switch_cpus.iew.exec_stores             368816                       # Number of stores executed
system.switch_cpus.iew.exec_swp                     0                       # number of swp insts executed
system.switch_cpus.iew.iewBlockCycles         7599172                       # Number of cycles IEW is blocking
system.switch_cpus.iew.iewDispLoadInsts       3306164                       # Number of dispatched load instructions
system.switch_cpus.iew.iewDispNonSpecInsts           23                       # Number of dispatched non-speculative instructions
system.switch_cpus.iew.iewDispSquashedInsts         6808                       # Number of squashed instructions skipped by dispatch
system.switch_cpus.iew.iewDispStoreInsts       430175                       # Number of dispatched store instructions
system.switch_cpus.iew.iewDispatchedInsts     19917596                       # Number of instructions dispatched to IQ
system.switch_cpus.iew.iewExecLoadInsts       3298585                       # Number of load instructions executed
system.switch_cpus.iew.iewExecSquashedInsts       142112                       # Number of squashed instructions skipped in execute
system.switch_cpus.iew.iewExecutedInsts      18929287                       # Number of executed instructions
system.switch_cpus.iew.iewIQFullEvents          80134                       # Number of times the IQ has become full, causing a stall
system.switch_cpus.iew.iewIdleCycles                0                       # Number of cycles IEW is idle
system.switch_cpus.iew.iewLSQFullEvents        601312                       # Number of times the LSQ has become full, causing a stall
system.switch_cpus.iew.iewSquashCycles          77824                       # Number of cycles IEW is squashing
system.switch_cpus.iew.iewUnblockCycles        728971                       # Number of cycles IEW is unblocking
system.switch_cpus.iew.lsq.thread0.blockedLoads            0                       # Number of blocked loads due to partial load-store forwarding
system.switch_cpus.iew.lsq.thread0.cacheBlocked        28895                       # Number of times an access to memory failed due to the cache being blocked
system.switch_cpus.iew.lsq.thread0.forwLoads        52821                       # Number of loads that had data forwarded from stores
system.switch_cpus.iew.lsq.thread0.ignoredResponses          346                       # Number of memory responses ignored because the instruction is squashed
system.switch_cpus.iew.lsq.thread0.invAddrLoads            0                       # Number of loads ignored due to an invalid address
system.switch_cpus.iew.lsq.thread0.invAddrSwpfs            0                       # Number of software prefetches ignored due to an invalid address
system.switch_cpus.iew.lsq.thread0.memOrderViolation          323                       # Number of memory ordering violations
system.switch_cpus.iew.lsq.thread0.rescheduledLoads          234                       # Number of loads that were rescheduled
system.switch_cpus.iew.lsq.thread0.squashedLoads       562975                       # Number of loads squashed
system.switch_cpus.iew.lsq.thread0.squashedStores       109775                       # Number of stores squashed
system.switch_cpus.iew.memOrderViolationEvents          323                       # Number of memory order violations
system.switch_cpus.iew.predictedNotTakenIncorrect        30159                       # Number of branches that were predicted not taken incorrectly
system.switch_cpus.iew.predictedTakenIncorrect        57347                       # Number of branches that were predicted taken incorrectly
system.switch_cpus.iew.wb_consumers          24058510                       # num instructions consuming a value
system.switch_cpus.iew.wb_count              18619373                       # cumulative count of insts written-back
system.switch_cpus.iew.wb_fanout             0.596840                       # average fanout of values written-back
system.switch_cpus.iew.wb_producers          14359070                       # num instructions producing a value
system.switch_cpus.iew.wb_rate               1.018759                       # insts written-back per cycle
system.switch_cpus.iew.wb_sent               18653125                       # cumulative count of insts sent to commit
system.switch_cpus.int_regfile_reads         17194039                       # number of integer regfile reads
system.switch_cpus.int_regfile_writes         8231566                       # number of integer regfile writes
system.switch_cpus.ipc                       0.547150                       # IPC: Instructions Per Cycle
system.switch_cpus.ipc_total                 0.547150                       # IPC: Total IPC of All Threads
system.switch_cpus.iq.FU_type_0::No_OpClass        39082      0.20%      0.20% # Type of FU issued
system.switch_cpus.iq.FU_type_0::IntAlu       8767833     45.97%     46.18% # Type of FU issued
system.switch_cpus.iq.FU_type_0::IntMult          203      0.00%     46.18% # Type of FU issued
system.switch_cpus.iq.FU_type_0::IntDiv            86      0.00%     46.18% # Type of FU issued
system.switch_cpus.iq.FU_type_0::FloatAdd       966820      5.07%     51.25% # Type of FU issued
system.switch_cpus.iq.FU_type_0::FloatCmp            0      0.00%     51.25% # Type of FU issued
system.switch_cpus.iq.FU_type_0::FloatCvt            0      0.00%     51.25% # Type of FU issued
system.switch_cpus.iq.FU_type_0::FloatMult            0      0.00%     51.25% # Type of FU issued
system.switch_cpus.iq.FU_type_0::FloatMultAcc            0      0.00%     51.25% # Type of FU issued
system.switch_cpus.iq.FU_type_0::FloatDiv            0      0.00%     51.25% # Type of FU issued
system.switch_cpus.iq.FU_type_0::FloatMisc            0      0.00%     51.25% # Type of FU issued
system.switch_cpus.iq.FU_type_0::FloatSqrt            0      0.00%     51.25% # Type of FU issued
system.switch_cpus.iq.FU_type_0::SimdAdd            0      0.00%     51.25% # Type of FU issued
system.switch_cpus.iq.FU_type_0::SimdAddAcc            0      0.00%     51.25% # Type of FU issued
system.switch_cpus.iq.FU_type_0::SimdAlu      1448755      7.60%     58.85% # Type of FU issued
system.switch_cpus.iq.FU_type_0::SimdCmp            0      0.00%     58.85% # Type of FU issued
system.switch_cpus.iq.FU_type_0::SimdCvt            8      0.00%     58.85% # Type of FU issued
system.switch_cpus.iq.FU_type_0::SimdMisc        35253      0.18%     59.03% # Type of FU issued
system.switch_cpus.iq.FU_type_0::SimdMult            0      0.00%     59.03% # Type of FU issued
system.switch_cpus.iq.FU_type_0::SimdMultAcc            0      0.00%     59.03% # Type of FU issued
system.switch_cpus.iq.FU_type_0::SimdShift            0      0.00%     59.03% # Type of FU issued
system.switch_cpus.iq.FU_type_0::SimdShiftAcc            0      0.00%     59.03% # Type of FU issued
system.switch_cpus.iq.FU_type_0::SimdDiv            0      0.00%     59.03% # Type of FU issued
system.switch_cpus.iq.FU_type_0::SimdSqrt            0      0.00%     59.03% # Type of FU issued
system.switch_cpus.iq.FU_type_0::SimdFloatAdd      1317074      6.91%     65.94% # Type of FU issued
system.switch_cpus.iq.FU_type_0::SimdFloatAlu            0      0.00%     65.94% # Type of FU issued
system.switch_cpus.iq.FU_type_0::SimdFloatCmp        15454      0.08%     66.02% # Type of FU issued
system.switch_cpus.iq.FU_type_0::SimdFloatCvt      1408871      7.39%     73.41% # Type of FU issued
system.switch_cpus.iq.FU_type_0::SimdFloatDiv            0      0.00%     73.41% # Type of FU issued
system.switch_cpus.iq.FU_type_0::SimdFloatMisc            0      0.00%     73.41% # Type of FU issued
system.switch_cpus.iq.FU_type_0::SimdFloatMult      1352071      7.09%     80.49% # Type of FU issued
system.switch_cpus.iq.FU_type_0::SimdFloatMultAcc            0      0.00%     80.49% # Type of FU issued
system.switch_cpus.iq.FU_type_0::SimdFloatSqrt            0      0.00%     80.49% # Type of FU issued
system.switch_cpus.iq.FU_type_0::SimdReduceAdd            0      0.00%     80.49% # Type of FU issued
system.switch_cpus.iq.FU_type_0::SimdReduceAlu            0      0.00%     80.49% # Type of FU issued
system.switch_cpus.iq.FU_type_0::SimdReduceCmp            0      0.00%     80.49% # Type of FU issued
system.switch_cpus.iq.FU_type_0::SimdFloatReduceAdd            0      0.00%     80.49% # Type of FU issued
system.switch_cpus.iq.FU_type_0::SimdFloatReduceCmp            0      0.00%     80.49% # Type of FU issued
system.switch_cpus.iq.FU_type_0::SimdAes            0      0.00%     80.49% # Type of FU issued
system.switch_cpus.iq.FU_type_0::SimdAesMix            0      0.00%     80.49% # Type of FU issued
system.switch_cpus.iq.FU_type_0::SimdSha1Hash            0      0.00%     80.49% # Type of FU issued
system.switch_cpus.iq.FU_type_0::SimdSha1Hash2            0      0.00%     80.49% # Type of FU issued
system.switch_cpus.iq.FU_type_0::SimdSha256Hash            0      0.00%     80.49% # Type of FU issued
system.switch_cpus.iq.FU_type_0::SimdSha256Hash2            0      0.00%     80.49% # Type of FU issued
system.switch_cpus.iq.FU_type_0::SimdShaSigma2            0      0.00%     80.49% # Type of FU issued
system.switch_cpus.iq.FU_type_0::SimdShaSigma3            0      0.00%     80.49% # Type of FU issued
system.switch_cpus.iq.FU_type_0::SimdPredAlu            0      0.00%     80.49% # Type of FU issued
system.switch_cpus.iq.FU_type_0::MemRead      1366590      7.17%     87.66% # Type of FU issued
system.switch_cpus.iq.FU_type_0::MemWrite       330579      1.73%     89.39% # Type of FU issued
system.switch_cpus.iq.FU_type_0::FloatMemRead      1976729     10.36%     99.76% # Type of FU issued
system.switch_cpus.iq.FU_type_0::FloatMemWrite        45993      0.24%    100.00% # Type of FU issued
system.switch_cpus.iq.FU_type_0::IprAccess            0      0.00%    100.00% # Type of FU issued
system.switch_cpus.iq.FU_type_0::InstPrefetch            0      0.00%    100.00% # Type of FU issued
system.switch_cpus.iq.FU_type_0::total       19071401                       # Type of FU issued
system.switch_cpus.iq.fp_alu_accesses         9277800                       # Number of floating point alu accesses
system.switch_cpus.iq.fp_inst_queue_reads     18352505                       # Number of floating instruction queue reads
system.switch_cpus.iq.fp_inst_queue_wakeup_accesses      8912384                       # Number of floating instruction queue wakeup accesses
system.switch_cpus.iq.fp_inst_queue_writes      9718913                       # Number of floating instruction queue writes
system.switch_cpus.iq.fu_busy_cnt              352779                       # FU busy when requested
system.switch_cpus.iq.fu_busy_rate           0.018498                       # FU busy rate (busy events/executed inst)
system.switch_cpus.iq.fu_full::No_OpClass            0      0.00%      0.00% # attempts to use FU when none available
system.switch_cpus.iq.fu_full::IntAlu          106420     30.17%     30.17% # attempts to use FU when none available
system.switch_cpus.iq.fu_full::IntMult              0      0.00%     30.17% # attempts to use FU when none available
system.switch_cpus.iq.fu_full::IntDiv               0      0.00%     30.17% # attempts to use FU when none available
system.switch_cpus.iq.fu_full::FloatAdd             0      0.00%     30.17% # attempts to use FU when none available
system.switch_cpus.iq.fu_full::FloatCmp             0      0.00%     30.17% # attempts to use FU when none available
system.switch_cpus.iq.fu_full::FloatCvt             0      0.00%     30.17% # attempts to use FU when none available
system.switch_cpus.iq.fu_full::FloatMult            0      0.00%     30.17% # attempts to use FU when none available
system.switch_cpus.iq.fu_full::FloatMultAcc            0      0.00%     30.17% # attempts to use FU when none available
system.switch_cpus.iq.fu_full::FloatDiv             0      0.00%     30.17% # attempts to use FU when none available
system.switch_cpus.iq.fu_full::FloatMisc            0      0.00%     30.17% # attempts to use FU when none available
system.switch_cpus.iq.fu_full::FloatSqrt            0      0.00%     30.17% # attempts to use FU when none available
system.switch_cpus.iq.fu_full::SimdAdd              0      0.00%     30.17% # attempts to use FU when none available
system.switch_cpus.iq.fu_full::SimdAddAcc            0      0.00%     30.17% # attempts to use FU when none available
system.switch_cpus.iq.fu_full::SimdAlu          61461     17.42%     47.59% # attempts to use FU when none available
system.switch_cpus.iq.fu_full::SimdCmp              0      0.00%     47.59% # attempts to use FU when none available
system.switch_cpus.iq.fu_full::SimdCvt              0      0.00%     47.59% # attempts to use FU when none available
system.switch_cpus.iq.fu_full::SimdMisc             0      0.00%     47.59% # attempts to use FU when none available
system.switch_cpus.iq.fu_full::SimdMult             0      0.00%     47.59% # attempts to use FU when none available
system.switch_cpus.iq.fu_full::SimdMultAcc            0      0.00%     47.59% # attempts to use FU when none available
system.switch_cpus.iq.fu_full::SimdShift            0      0.00%     47.59% # attempts to use FU when none available
system.switch_cpus.iq.fu_full::SimdShiftAcc            0      0.00%     47.59% # attempts to use FU when none available
system.switch_cpus.iq.fu_full::SimdDiv              0      0.00%     47.59% # attempts to use FU when none available
system.switch_cpus.iq.fu_full::SimdSqrt             0      0.00%     47.59% # attempts to use FU when none available
system.switch_cpus.iq.fu_full::SimdFloatAdd        83778     23.75%     71.34% # attempts to use FU when none available
system.switch_cpus.iq.fu_full::SimdFloatAlu            0      0.00%     71.34% # attempts to use FU when none available
system.switch_cpus.iq.fu_full::SimdFloatCmp            0      0.00%     71.34% # attempts to use FU when none available
system.switch_cpus.iq.fu_full::SimdFloatCvt        22858      6.48%     77.82% # attempts to use FU when none available
system.switch_cpus.iq.fu_full::SimdFloatDiv            0      0.00%     77.82% # attempts to use FU when none available
system.switch_cpus.iq.fu_full::SimdFloatMisc            0      0.00%     77.82% # attempts to use FU when none available
system.switch_cpus.iq.fu_full::SimdFloatMult         3301      0.94%     78.75% # attempts to use FU when none available
system.switch_cpus.iq.fu_full::SimdFloatMultAcc            0      0.00%     78.75% # attempts to use FU when none available
system.switch_cpus.iq.fu_full::SimdFloatSqrt            0      0.00%     78.75% # attempts to use FU when none available
system.switch_cpus.iq.fu_full::SimdReduceAdd            0      0.00%     78.75% # attempts to use FU when none available
system.switch_cpus.iq.fu_full::SimdReduceAlu            0      0.00%     78.75% # attempts to use FU when none available
system.switch_cpus.iq.fu_full::SimdReduceCmp            0      0.00%     78.75% # attempts to use FU when none available
system.switch_cpus.iq.fu_full::SimdFloatReduceAdd            0      0.00%     78.75% # attempts to use FU when none available
system.switch_cpus.iq.fu_full::SimdFloatReduceCmp            0      0.00%     78.75% # attempts to use FU when none available
system.switch_cpus.iq.fu_full::SimdAes              0      0.00%     78.75% # attempts to use FU when none available
system.switch_cpus.iq.fu_full::SimdAesMix            0      0.00%     78.75% # attempts to use FU when none available
system.switch_cpus.iq.fu_full::SimdSha1Hash            0      0.00%     78.75% # attempts to use FU when none available
system.switch_cpus.iq.fu_full::SimdSha1Hash2            0      0.00%     78.75% # attempts to use FU when none available
system.switch_cpus.iq.fu_full::SimdSha256Hash            0      0.00%     78.75% # attempts to use FU when none available
system.switch_cpus.iq.fu_full::SimdSha256Hash2            0      0.00%     78.75% # attempts to use FU when none available
system.switch_cpus.iq.fu_full::SimdShaSigma2            0      0.00%     78.75% # attempts to use FU when none available
system.switch_cpus.iq.fu_full::SimdShaSigma3            0      0.00%     78.75% # attempts to use FU when none available
system.switch_cpus.iq.fu_full::SimdPredAlu            0      0.00%     78.75% # attempts to use FU when none available
system.switch_cpus.iq.fu_full::MemRead          33166      9.40%     88.15% # attempts to use FU when none available
system.switch_cpus.iq.fu_full::MemWrite          6452      1.83%     89.98% # attempts to use FU when none available
system.switch_cpus.iq.fu_full::FloatMemRead        35262     10.00%     99.98% # attempts to use FU when none available
system.switch_cpus.iq.fu_full::FloatMemWrite           81      0.02%    100.00% # attempts to use FU when none available
system.switch_cpus.iq.fu_full::IprAccess            0      0.00%    100.00% # attempts to use FU when none available
system.switch_cpus.iq.fu_full::InstPrefetch            0      0.00%    100.00% # attempts to use FU when none available
system.switch_cpus.iq.int_alu_accesses       10107298                       # Number of integer alu accesses
system.switch_cpus.iq.int_inst_queue_reads     38413431                       # Number of integer instruction queue reads
system.switch_cpus.iq.int_inst_queue_wakeup_accesses      9706989                       # Number of integer instruction queue wakeup accesses
system.switch_cpus.iq.int_inst_queue_writes     13240137                       # Number of integer instruction queue writes
system.switch_cpus.iq.iqInstsAdded           19917531                       # Number of instructions added to the IQ (excludes non-spec)
system.switch_cpus.iq.iqInstsIssued          19071401                       # Number of instructions issued
system.switch_cpus.iq.iqNonSpecInstsAdded           65                       # Number of non-speculative instructions added to the IQ
system.switch_cpus.iq.iqSquashedInstsExamined      3041157                       # Number of squashed instructions iterated over during squash; mainly for profiling
system.switch_cpus.iq.iqSquashedInstsIssued        48093                       # Number of squashed instructions issued
system.switch_cpus.iq.iqSquashedNonSpecRemoved           65                       # Number of squashed non-spec instructions that were removed
system.switch_cpus.iq.iqSquashedOperandsExamined      4229862                       # Number of squashed operands that are examined and possibly removed from graph
system.switch_cpus.iq.issued_per_cycle::samples     18222264                       # Number of insts issued each cycle
system.switch_cpus.iq.issued_per_cycle::mean     1.046599                       # Number of insts issued each cycle
system.switch_cpus.iq.issued_per_cycle::stdev     1.917569                       # Number of insts issued each cycle
system.switch_cpus.iq.issued_per_cycle::underflows            0      0.00%      0.00% # Number of insts issued each cycle
system.switch_cpus.iq.issued_per_cycle::0     12416550     68.14%     68.14% # Number of insts issued each cycle
system.switch_cpus.iq.issued_per_cycle::1      1482643      8.14%     76.28% # Number of insts issued each cycle
system.switch_cpus.iq.issued_per_cycle::2      1060759      5.82%     82.10% # Number of insts issued each cycle
system.switch_cpus.iq.issued_per_cycle::3       907079      4.98%     87.07% # Number of insts issued each cycle
system.switch_cpus.iq.issued_per_cycle::4       787555      4.32%     91.40% # Number of insts issued each cycle
system.switch_cpus.iq.issued_per_cycle::5       563578      3.09%     94.49% # Number of insts issued each cycle
system.switch_cpus.iq.issued_per_cycle::6       473068      2.60%     97.09% # Number of insts issued each cycle
system.switch_cpus.iq.issued_per_cycle::7       308771      1.69%     98.78% # Number of insts issued each cycle
system.switch_cpus.iq.issued_per_cycle::8       222261      1.22%    100.00% # Number of insts issued each cycle
system.switch_cpus.iq.issued_per_cycle::overflows            0      0.00%    100.00% # Number of insts issued each cycle
system.switch_cpus.iq.issued_per_cycle::min_value            0                       # Number of insts issued each cycle
system.switch_cpus.iq.issued_per_cycle::max_value            8                       # Number of insts issued each cycle
system.switch_cpus.iq.issued_per_cycle::total     18222264                       # Number of insts issued each cycle
system.switch_cpus.iq.rate                   1.043492                       # Inst issue rate
system.switch_cpus.iq.vec_alu_accesses              0                       # Number of vector alu accesses
system.switch_cpus.iq.vec_inst_queue_reads            0                       # Number of vector instruction queue reads
system.switch_cpus.iq.vec_inst_queue_wakeup_accesses            0                       # Number of vector instruction queue wakeup accesses
system.switch_cpus.iq.vec_inst_queue_writes            0                       # Number of vector instruction queue writes
system.switch_cpus.itb.rdAccesses                   0                       # TLB accesses on read requests
system.switch_cpus.itb.rdMisses                     0                       # TLB misses on read requests
system.switch_cpus.itb.wrAccesses             1743092                       # TLB accesses on write requests
system.switch_cpus.itb.wrMisses                   362                       # TLB misses on write requests
system.switch_cpus.memDep0.conflictingLoads        51748                       # Number of conflicting loads.
system.switch_cpus.memDep0.conflictingStores        20984                       # Number of conflicting stores.
system.switch_cpus.memDep0.insertedLoads      3306164                       # Number of loads inserted to the mem dependence unit.
system.switch_cpus.memDep0.insertedStores       430175                       # Number of stores inserted to the mem dependence unit.
system.switch_cpus.misc_regfile_reads         6133218                       # number of misc regfile reads
system.switch_cpus.misc_regfile_writes              1                       # number of misc regfile writes
system.switch_cpus.numCycles                 18276519                       # number of cpu cycles simulated
system.switch_cpus.numWorkItemsCompleted            0                       # number of work items this cpu completed
system.switch_cpus.numWorkItemsStarted              0                       # number of work items this cpu started
system.switch_cpus.rename.BlockCycles        11355298                       # Number of cycles rename is blocking
system.switch_cpus.rename.CommittedMaps      19414366                       # Number of HB maps that are committed
system.switch_cpus.rename.IQFullEvents        1414652                       # Number of times rename has blocked due to IQ full
system.switch_cpus.rename.IdleCycles          1537168                       # Number of cycles rename is idle
system.switch_cpus.rename.LQFullEvents         544594                       # Number of times rename has blocked due to LQ full
system.switch_cpus.rename.ROBFullEvents        145497                       # Number of times rename has blocked due to ROB full
system.switch_cpus.rename.RenameLookups      49440992                       # Number of register rename lookups that rename has made
system.switch_cpus.rename.RenamedInsts       20481703                       # Number of instructions processed by rename
system.switch_cpus.rename.RenamedOperands     23736281                       # Number of destination operands rename has renamed
system.switch_cpus.rename.RunCycles           2582291                       # Number of cycles rename is running
system.switch_cpus.rename.SQFullEvents         448054                       # Number of times rename has blocked due to SQ full
system.switch_cpus.rename.SquashCycles          77824                       # Number of cycles rename is squashing
system.switch_cpus.rename.UnblockCycles       2669668                       # Number of cycles rename is unblocking
system.switch_cpus.rename.UndoneMaps          4321783                       # Number of HB maps that are undone due to squashing
system.switch_cpus.rename.fp_rename_lookups     15639694                       # Number of floating rename lookups
system.switch_cpus.rename.int_rename_lookups     19392116                       # Number of integer rename lookups
system.switch_cpus.rename.serializeStallCycles           11                       # count of cycles rename stalled for serializing inst
system.switch_cpus.rename.serializingInsts            2                       # count of serializing insts renamed
system.switch_cpus.rename.skidInsts           4296586                       # count of insts added to the skid buffer
system.switch_cpus.rename.tempSerializingInsts            2                       # count of temporary serializing insts renamed
system.switch_cpus.rob.rob_reads             36264510                       # The number of ROB reads
system.switch_cpus.rob.rob_writes            40271559                       # The number of ROB writes
system.switch_cpus.timesIdled                     619                       # Number of times that the entire CPU went into an idle state and unscheduled itself
system.tol2bus.snoop_filter.hit_multi_requests            0                       # Number of requests hitting in the snoop filter with multiple (>1) holders of the requested data.
system.tol2bus.snoop_filter.hit_multi_snoops            0                       # Number of snoops hitting in the snoop filter with multiple (>1) holders of the requested data.
system.tol2bus.snoop_filter.hit_single_requests       205716                       # Number of requests hitting in the snoop filter with a single holder of the requested data.
system.tol2bus.snoop_filter.hit_single_snoops         7044                       # Number of snoops hitting in the snoop filter with a single holder of the requested data.
system.tol2bus.snoop_filter.tot_requests       412919                       # Total number of requests made to the snoop filter.
system.tol2bus.snoop_filter.tot_snoops           7044                       # Total number of snoops made to the snoop filter.
system.membus.pwrStateResidencyTicks::UNDEFINED 359103646109500                       # Cumulative time (in ticks) in various power states
system.membus.trans_dist::ReadResp             156906                       # Transaction distribution
system.membus.trans_dist::WritebackDirty        15307                       # Transaction distribution
system.membus.trans_dist::CleanEvict           141341                       # Transaction distribution
system.membus.trans_dist::ReadExReq              8398                       # Transaction distribution
system.membus.trans_dist::ReadExResp             8398                       # Transaction distribution
system.membus.trans_dist::ReadSharedReq        156907                       # Transaction distribution
system.membus.pkt_count_system.l2.mem_side::system.mem_ctrls.port       487257                       # Packet count per connected master and slave (bytes)
system.membus.pkt_count_system.l2.mem_side::total       487257                       # Packet count per connected master and slave (bytes)
system.membus.pkt_count::total                 487257                       # Packet count per connected master and slave (bytes)
system.membus.pkt_size_system.l2.mem_side::system.mem_ctrls.port     11559104                       # Cumulative packet size per connected master and slave (bytes)
system.membus.pkt_size_system.l2.mem_side::total     11559104                       # Cumulative packet size per connected master and slave (bytes)
system.membus.pkt_size::total                11559104                       # Cumulative packet size per connected master and slave (bytes)
system.membus.snoops                                0                       # Total snoops (count)
system.membus.snoopTraffic                          0                       # Total snoop traffic (bytes)
system.membus.snoop_fanout::samples            165305                       # Request fanout histogram
system.membus.snoop_fanout::mean                    0                       # Request fanout histogram
system.membus.snoop_fanout::stdev                   0                       # Request fanout histogram
system.membus.snoop_fanout::underflows              0      0.00%      0.00% # Request fanout histogram
system.membus.snoop_fanout::0                  165305    100.00%    100.00% # Request fanout histogram
system.membus.snoop_fanout::1                       0      0.00%    100.00% # Request fanout histogram
system.membus.snoop_fanout::overflows               0      0.00%    100.00% # Request fanout histogram
system.membus.snoop_fanout::min_value               0                       # Request fanout histogram
system.membus.snoop_fanout::max_value               0                       # Request fanout histogram
system.membus.snoop_fanout::total              165305                       # Request fanout histogram
system.membus.reqLayer2.occupancy           416909000                       # Layer occupancy (ticks)
system.membus.reqLayer2.utilization               4.6                       # Layer utilization (%)
system.membus.respLayer1.occupancy          884944500                       # Layer occupancy (ticks)
system.membus.respLayer1.utilization              9.7                       # Layer utilization (%)
system.switch_cpus.pwrStateResidencyTicks::OFF   9138269500                       # Cumulative time (in ticks) in various power states
system.switch_cpus.dtb.walker.pwrStateResidencyTicks::UNDEFINED 359103646109500                       # Cumulative time (in ticks) in various power states
system.switch_cpus.itb.walker.pwrStateResidencyTicks::UNDEFINED 359103646109500                       # Cumulative time (in ticks) in various power states
system.tol2bus.pwrStateResidencyTicks::UNDEFINED 359103646109500                       # Cumulative time (in ticks) in various power states
system.tol2bus.trans_dist::ReadResp            197125                       # Transaction distribution
system.tol2bus.trans_dist::WritebackDirty        47984                       # Transaction distribution
system.tol2bus.trans_dist::WritebackClean          473                       # Transaction distribution
system.tol2bus.trans_dist::CleanEvict          315860                       # Transaction distribution
system.tol2bus.trans_dist::ReadExReq            10076                       # Transaction distribution
system.tol2bus.trans_dist::ReadExResp           10076                       # Transaction distribution
system.tol2bus.trans_dist::ReadCleanReq           934                       # Transaction distribution
system.tol2bus.trans_dist::ReadSharedReq       196193                       # Transaction distribution
system.tol2bus.pkt_count_system.cpu.icache.mem_side::system.l2.cpu_side         2341                       # Packet count per connected master and slave (bytes)
system.tol2bus.pkt_count_system.cpu.dcache.mem_side::system.l2.cpu_side       617779                       # Packet count per connected master and slave (bytes)
system.tol2bus.pkt_count::total                620120                       # Packet count per connected master and slave (bytes)
system.tol2bus.pkt_size_system.cpu.icache.mem_side::system.l2.cpu_side        90048                       # Cumulative packet size per connected master and slave (bytes)
system.tol2bus.pkt_size_system.cpu.dcache.mem_side::system.l2.cpu_side     15292416                       # Cumulative packet size per connected master and slave (bytes)
system.tol2bus.pkt_size::total               15382464                       # Cumulative packet size per connected master and slave (bytes)
system.tol2bus.snoops                          158601                       # Total snoops (count)
system.tol2bus.snoopTraffic                    979648                       # Total snoop traffic (bytes)
system.tol2bus.snoop_fanout::samples           365804                       # Request fanout histogram
system.tol2bus.snoop_fanout::mean            0.019256                       # Request fanout histogram
system.tol2bus.snoop_fanout::stdev           0.137424                       # Request fanout histogram
system.tol2bus.snoop_fanout::underflows             0      0.00%      0.00% # Request fanout histogram
system.tol2bus.snoop_fanout::0                 358760     98.07%     98.07% # Request fanout histogram
system.tol2bus.snoop_fanout::1                   7044      1.93%    100.00% # Request fanout histogram
system.tol2bus.snoop_fanout::2                      0      0.00%    100.00% # Request fanout histogram
system.tol2bus.snoop_fanout::3                      0      0.00%    100.00% # Request fanout histogram
system.tol2bus.snoop_fanout::4                      0      0.00%    100.00% # Request fanout histogram
system.tol2bus.snoop_fanout::overflows              0      0.00%    100.00% # Request fanout histogram
system.tol2bus.snoop_fanout::min_value              0                       # Request fanout histogram
system.tol2bus.snoop_fanout::max_value              1                       # Request fanout histogram
system.tol2bus.snoop_fanout::total             365804                       # Request fanout histogram
system.tol2bus.reqLayer0.occupancy          239607000                       # Layer occupancy (ticks)
system.tol2bus.reqLayer0.utilization              2.6                       # Layer utilization (%)
system.tol2bus.respLayer1.occupancy         309396000                       # Layer occupancy (ticks)
system.tol2bus.respLayer1.utilization             3.4                       # Layer utilization (%)
system.tol2bus.respLayer0.occupancy           1398998                       # Layer occupancy (ticks)
system.tol2bus.respLayer0.utilization             0.0                       # Layer utilization (%)
system.voltage_domain.voltage                       1                       # Voltage in Volts
system.clk_domain.clock                          1000                       # Clock period in ticks
system.l2.pwrStateResidencyTicks::UNDEFINED 359103646109500                       # Cumulative time (in ticks) in various power states
system.l2.demand_hits::.switch_cpus.inst           92                       # number of demand (read+write) hits
system.l2.demand_hits::.switch_cpus.data        41805                       # number of demand (read+write) hits
system.l2.demand_hits::total                    41897                       # number of demand (read+write) hits
system.l2.overall_hits::.switch_cpus.inst           92                       # number of overall hits
system.l2.overall_hits::.switch_cpus.data        41805                       # number of overall hits
system.l2.overall_hits::total                   41897                       # number of overall hits
system.l2.demand_misses::.cpu.inst                  2                       # number of demand (read+write) misses
system.l2.demand_misses::.cpu.data                  3                       # number of demand (read+write) misses
system.l2.demand_misses::.switch_cpus.inst          840                       # number of demand (read+write) misses
system.l2.demand_misses::.switch_cpus.data       164461                       # number of demand (read+write) misses
system.l2.demand_misses::total                 165306                       # number of demand (read+write) misses
system.l2.overall_misses::.cpu.inst                 2                       # number of overall misses
system.l2.overall_misses::.cpu.data                 3                       # number of overall misses
system.l2.overall_misses::.switch_cpus.inst          840                       # number of overall misses
system.l2.overall_misses::.switch_cpus.data       164461                       # number of overall misses
system.l2.overall_misses::total                165306                       # number of overall misses
system.l2.demand_miss_latency::.switch_cpus.inst     69777000                       # number of demand (read+write) miss cycles
system.l2.demand_miss_latency::.switch_cpus.data  13667838500                       # number of demand (read+write) miss cycles
system.l2.demand_miss_latency::total      13737615500                       # number of demand (read+write) miss cycles
system.l2.overall_miss_latency::.switch_cpus.inst     69777000                       # number of overall miss cycles
system.l2.overall_miss_latency::.switch_cpus.data  13667838500                       # number of overall miss cycles
system.l2.overall_miss_latency::total     13737615500                       # number of overall miss cycles
system.l2.demand_accesses::.cpu.inst                2                       # number of demand (read+write) accesses
system.l2.demand_accesses::.cpu.data                3                       # number of demand (read+write) accesses
system.l2.demand_accesses::.switch_cpus.inst          932                       # number of demand (read+write) accesses
system.l2.demand_accesses::.switch_cpus.data       206266                       # number of demand (read+write) accesses
system.l2.demand_accesses::total               207203                       # number of demand (read+write) accesses
system.l2.overall_accesses::.cpu.inst               2                       # number of overall (read+write) accesses
system.l2.overall_accesses::.cpu.data               3                       # number of overall (read+write) accesses
system.l2.overall_accesses::.switch_cpus.inst          932                       # number of overall (read+write) accesses
system.l2.overall_accesses::.switch_cpus.data       206266                       # number of overall (read+write) accesses
system.l2.overall_accesses::total              207203                       # number of overall (read+write) accesses
system.l2.demand_miss_rate::.cpu.inst               1                       # miss rate for demand accesses
system.l2.demand_miss_rate::.cpu.data               1                       # miss rate for demand accesses
system.l2.demand_miss_rate::.switch_cpus.inst     0.901288                       # miss rate for demand accesses
system.l2.demand_miss_rate::.switch_cpus.data     0.797325                       # miss rate for demand accesses
system.l2.demand_miss_rate::total            0.797797                       # miss rate for demand accesses
system.l2.overall_miss_rate::.cpu.inst              1                       # miss rate for overall accesses
system.l2.overall_miss_rate::.cpu.data              1                       # miss rate for overall accesses
system.l2.overall_miss_rate::.switch_cpus.inst     0.901288                       # miss rate for overall accesses
system.l2.overall_miss_rate::.switch_cpus.data     0.797325                       # miss rate for overall accesses
system.l2.overall_miss_rate::total           0.797797                       # miss rate for overall accesses
system.l2.demand_avg_miss_latency::.switch_cpus.inst 83067.857143                       # average overall miss latency
system.l2.demand_avg_miss_latency::.switch_cpus.data 83106.867282                       # average overall miss latency
system.l2.demand_avg_miss_latency::total 83104.155324                       # average overall miss latency
system.l2.overall_avg_miss_latency::.switch_cpus.inst 83067.857143                       # average overall miss latency
system.l2.overall_avg_miss_latency::.switch_cpus.data 83106.867282                       # average overall miss latency
system.l2.overall_avg_miss_latency::total 83104.155324                       # average overall miss latency
system.l2.blocked_cycles::no_mshrs                  0                       # number of cycles access was blocked
system.l2.blocked_cycles::no_targets                0                       # number of cycles access was blocked
system.l2.blocked::no_mshrs                         0                       # number of cycles access was blocked
system.l2.blocked::no_targets                       0                       # number of cycles access was blocked
system.l2.avg_blocked_cycles::no_mshrs            nan                       # average number of cycles each access was blocked
system.l2.avg_blocked_cycles::no_targets          nan                       # average number of cycles each access was blocked
system.l2.writebacks::.writebacks               15307                       # number of writebacks
system.l2.writebacks::total                     15307                       # number of writebacks
system.l2.demand_mshr_misses::.switch_cpus.inst          840                       # number of demand (read+write) MSHR misses
system.l2.demand_mshr_misses::.switch_cpus.data       164461                       # number of demand (read+write) MSHR misses
system.l2.demand_mshr_misses::total            165301                       # number of demand (read+write) MSHR misses
system.l2.overall_mshr_misses::.switch_cpus.inst          840                       # number of overall MSHR misses
system.l2.overall_mshr_misses::.switch_cpus.data       164461                       # number of overall MSHR misses
system.l2.overall_mshr_misses::total           165301                       # number of overall MSHR misses
system.l2.demand_mshr_miss_latency::.switch_cpus.inst     61377000                       # number of demand (read+write) MSHR miss cycles
system.l2.demand_mshr_miss_latency::.switch_cpus.data  12023248500                       # number of demand (read+write) MSHR miss cycles
system.l2.demand_mshr_miss_latency::total  12084625500                       # number of demand (read+write) MSHR miss cycles
system.l2.overall_mshr_miss_latency::.switch_cpus.inst     61377000                       # number of overall MSHR miss cycles
system.l2.overall_mshr_miss_latency::.switch_cpus.data  12023248500                       # number of overall MSHR miss cycles
system.l2.overall_mshr_miss_latency::total  12084625500                       # number of overall MSHR miss cycles
system.l2.demand_mshr_miss_rate::.switch_cpus.inst     0.901288                       # mshr miss rate for demand accesses
system.l2.demand_mshr_miss_rate::.switch_cpus.data     0.797325                       # mshr miss rate for demand accesses
system.l2.demand_mshr_miss_rate::total       0.797773                       # mshr miss rate for demand accesses
system.l2.overall_mshr_miss_rate::.switch_cpus.inst     0.901288                       # mshr miss rate for overall accesses
system.l2.overall_mshr_miss_rate::.switch_cpus.data     0.797325                       # mshr miss rate for overall accesses
system.l2.overall_mshr_miss_rate::total      0.797773                       # mshr miss rate for overall accesses
system.l2.demand_avg_mshr_miss_latency::.switch_cpus.inst 73067.857143                       # average overall mshr miss latency
system.l2.demand_avg_mshr_miss_latency::.switch_cpus.data 73106.988891                       # average overall mshr miss latency
system.l2.demand_avg_mshr_miss_latency::total 73106.790038                       # average overall mshr miss latency
system.l2.overall_avg_mshr_miss_latency::.switch_cpus.inst 73067.857143                       # average overall mshr miss latency
system.l2.overall_avg_mshr_miss_latency::.switch_cpus.data 73106.988891                       # average overall mshr miss latency
system.l2.overall_avg_mshr_miss_latency::total 73106.790038                       # average overall mshr miss latency
system.l2.replacements                         158601                       # number of replacements
system.l2.WritebackDirty_hits::.writebacks        32677                       # number of WritebackDirty hits
system.l2.WritebackDirty_hits::total            32677                       # number of WritebackDirty hits
system.l2.WritebackDirty_accesses::.writebacks        32677                       # number of WritebackDirty accesses(hits+misses)
system.l2.WritebackDirty_accesses::total        32677                       # number of WritebackDirty accesses(hits+misses)
system.l2.WritebackClean_hits::.writebacks          473                       # number of WritebackClean hits
system.l2.WritebackClean_hits::total              473                       # number of WritebackClean hits
system.l2.WritebackClean_accesses::.writebacks          473                       # number of WritebackClean accesses(hits+misses)
system.l2.WritebackClean_accesses::total          473                       # number of WritebackClean accesses(hits+misses)
system.l2.CleanEvict_mshr_misses::.writebacks         5091                       # number of CleanEvict MSHR misses
system.l2.CleanEvict_mshr_misses::total          5091                       # number of CleanEvict MSHR misses
system.l2.CleanEvict_mshr_miss_rate::.writebacks          inf                       # mshr miss rate for CleanEvict accesses
system.l2.CleanEvict_mshr_miss_rate::total          inf                       # mshr miss rate for CleanEvict accesses
system.l2.ReadExReq_hits::.switch_cpus.data         1678                       # number of ReadExReq hits
system.l2.ReadExReq_hits::total                  1678                       # number of ReadExReq hits
system.l2.ReadExReq_misses::.switch_cpus.data         8398                       # number of ReadExReq misses
system.l2.ReadExReq_misses::total                8398                       # number of ReadExReq misses
system.l2.ReadExReq_miss_latency::.switch_cpus.data    690866000                       # number of ReadExReq miss cycles
system.l2.ReadExReq_miss_latency::total     690866000                       # number of ReadExReq miss cycles
system.l2.ReadExReq_accesses::.switch_cpus.data        10076                       # number of ReadExReq accesses(hits+misses)
system.l2.ReadExReq_accesses::total             10076                       # number of ReadExReq accesses(hits+misses)
system.l2.ReadExReq_miss_rate::.switch_cpus.data     0.833466                       # miss rate for ReadExReq accesses
system.l2.ReadExReq_miss_rate::total         0.833466                       # miss rate for ReadExReq accesses
system.l2.ReadExReq_avg_miss_latency::.switch_cpus.data 82265.539414                       # average ReadExReq miss latency
system.l2.ReadExReq_avg_miss_latency::total 82265.539414                       # average ReadExReq miss latency
system.l2.ReadExReq_mshr_misses::.switch_cpus.data         8398                       # number of ReadExReq MSHR misses
system.l2.ReadExReq_mshr_misses::total           8398                       # number of ReadExReq MSHR misses
system.l2.ReadExReq_mshr_miss_latency::.switch_cpus.data    606886000                       # number of ReadExReq MSHR miss cycles
system.l2.ReadExReq_mshr_miss_latency::total    606886000                       # number of ReadExReq MSHR miss cycles
system.l2.ReadExReq_mshr_miss_rate::.switch_cpus.data     0.833466                       # mshr miss rate for ReadExReq accesses
system.l2.ReadExReq_mshr_miss_rate::total     0.833466                       # mshr miss rate for ReadExReq accesses
system.l2.ReadExReq_avg_mshr_miss_latency::.switch_cpus.data 72265.539414                       # average ReadExReq mshr miss latency
system.l2.ReadExReq_avg_mshr_miss_latency::total 72265.539414                       # average ReadExReq mshr miss latency
system.l2.ReadCleanReq_hits::.switch_cpus.inst           92                       # number of ReadCleanReq hits
system.l2.ReadCleanReq_hits::total                 92                       # number of ReadCleanReq hits
system.l2.ReadCleanReq_misses::.cpu.inst            2                       # number of ReadCleanReq misses
system.l2.ReadCleanReq_misses::.switch_cpus.inst          840                       # number of ReadCleanReq misses
system.l2.ReadCleanReq_misses::total              842                       # number of ReadCleanReq misses
system.l2.ReadCleanReq_miss_latency::.switch_cpus.inst     69777000                       # number of ReadCleanReq miss cycles
system.l2.ReadCleanReq_miss_latency::total     69777000                       # number of ReadCleanReq miss cycles
system.l2.ReadCleanReq_accesses::.cpu.inst            2                       # number of ReadCleanReq accesses(hits+misses)
system.l2.ReadCleanReq_accesses::.switch_cpus.inst          932                       # number of ReadCleanReq accesses(hits+misses)
system.l2.ReadCleanReq_accesses::total            934                       # number of ReadCleanReq accesses(hits+misses)
system.l2.ReadCleanReq_miss_rate::.cpu.inst            1                       # miss rate for ReadCleanReq accesses
system.l2.ReadCleanReq_miss_rate::.switch_cpus.inst     0.901288                       # miss rate for ReadCleanReq accesses
system.l2.ReadCleanReq_miss_rate::total      0.901499                       # miss rate for ReadCleanReq accesses
system.l2.ReadCleanReq_avg_miss_latency::.switch_cpus.inst 83067.857143                       # average ReadCleanReq miss latency
[...]
system.cpu.icache.tags.data_accesses         13967461                       # Number of data accesses
system.cpu.dtb.walker.pwrStateResidencyTicks::UNDEFINED 359131260628500                       # Cumulative time (in ticks) in various power states
system.cpu.interrupts.clk_domain.clock           8000                       # Clock period in ticks
system.cpu.itb_walker_cache.pwrStateResidencyTicks::UNDEFINED 359131260628500                       # Cumulative time (in ticks) in various power states
system.cpu.itb_walker_cache.blocked_cycles::no_mshrs            0                       # number of cycles access was blocked
system.cpu.itb_walker_cache.blocked_cycles::no_targets            0                       # number of cycles access was blocked
system.cpu.itb_walker_cache.blocked::no_mshrs            0                       # number of cycles access was blocked
system.cpu.itb_walker_cache.blocked::no_targets            0                       # number of cycles access was blocked
system.cpu.itb_walker_cache.avg_blocked_cycles::no_mshrs          nan                       # average number of cycles each access was blocked
system.cpu.itb_walker_cache.avg_blocked_cycles::no_targets          nan                       # average number of cycles each access was blocked
system.cpu.itb_walker_cache.replacements            0                       # number of replacements
system.cpu.itb_walker_cache.tags.pwrStateResidencyTicks::UNDEFINED 359131260628500                       # Cumulative time (in ticks) in various power states
system.cpu.itb_walker_cache.tags.tagsinuse            0                       # Cycle average of tags in use
system.cpu.itb_walker_cache.tags.total_refs            0                       # Total number of references to valid blocks.
system.cpu.itb_walker_cache.tags.sampled_refs            0                       # Sample count of references to valid blocks.
system.cpu.itb_walker_cache.tags.avg_refs          nan                       # Average number of references to valid blocks.
system.cpu.itb_walker_cache.tags.warmup_cycle            0                       # Cycle when the warmup percentage was hit.
system.cpu.itb_walker_cache.tags.tag_accesses            0                       # Number of tag accesses
system.cpu.itb_walker_cache.tags.data_accesses            0                       # Number of data accesses
system.cpu.itb.walker.pwrStateResidencyTicks::UNDEFINED 359131260628500                       # Cumulative time (in ticks) in various power states
system.cpu.dtb_walker_cache.pwrStateResidencyTicks::UNDEFINED 359131260628500                       # Cumulative time (in ticks) in various power states
system.cpu.dtb_walker_cache.blocked_cycles::no_mshrs            0                       # number of cycles access was blocked
system.cpu.dtb_walker_cache.blocked_cycles::no_targets            0                       # number of cycles access was blocked
system.cpu.dtb_walker_cache.blocked::no_mshrs            0                       # number of cycles access was blocked
system.cpu.dtb_walker_cache.blocked::no_targets            0                       # number of cycles access was blocked
system.cpu.dtb_walker_cache.avg_blocked_cycles::no_mshrs          nan                       # average number of cycles each access was blocked
system.cpu.dtb_walker_cache.avg_blocked_cycles::no_targets          nan                       # average number of cycles each access was blocked
system.cpu.dtb_walker_cache.replacements            0                       # number of replacements
system.cpu.dtb_walker_cache.tags.pwrStateResidencyTicks::UNDEFINED 359131260628500                       # Cumulative time (in ticks) in various power states
system.cpu.dtb_walker_cache.tags.tagsinuse            0                       # Cycle average of tags in use
system.cpu.dtb_walker_cache.tags.total_refs            0                       # Total number of references to valid blocks.
system.cpu.dtb_walker_cache.tags.sampled_refs            0                       # Sample count of references to valid blocks.
system.cpu.dtb_walker_cache.tags.avg_refs          nan                       # Average number of references to valid blocks.
system.cpu.dtb_walker_cache.tags.warmup_cycle            0                       # Cycle when the warmup percentage was hit.
system.cpu.dtb_walker_cache.tags.tag_accesses            0                       # Number of tag accesses
system.cpu.dtb_walker_cache.tags.data_accesses            0                       # Number of data accesses
system.cpu.dcache.pwrStateResidencyTicks::UNDEFINED 359131260628500                       # Cumulative time (in ticks) in various power states
system.cpu.dcache.demand_hits::.cpu.data            1                       # number of demand (read+write) hits
system.cpu.dcache.demand_hits::.switch_cpus.data     10764919                       # number of demand (read+write) hits
system.cpu.dcache.demand_hits::total         10764920                       # number of demand (read+write) hits
system.cpu.dcache.overall_hits::.cpu.data            1                       # number of overall hits
system.cpu.dcache.overall_hits::.switch_cpus.data     10764919                       # number of overall hits
system.cpu.dcache.overall_hits::total        10764920                       # number of overall hits
system.cpu.dcache.demand_misses::.cpu.data            3                       # number of demand (read+write) misses
system.cpu.dcache.demand_misses::.switch_cpus.data      3191783                       # number of demand (read+write) misses
system.cpu.dcache.demand_misses::total        3191786                       # number of demand (read+write) misses
system.cpu.dcache.overall_misses::.cpu.data            3                       # number of overall misses
system.cpu.dcache.overall_misses::.switch_cpus.data      3191783                       # number of overall misses
system.cpu.dcache.overall_misses::total       3191786                       # number of overall misses
system.cpu.dcache.demand_miss_latency::.switch_cpus.data 204686305628                       # number of demand (read+write) miss cycles
system.cpu.dcache.demand_miss_latency::total 204686305628                       # number of demand (read+write) miss cycles
system.cpu.dcache.overall_miss_latency::.switch_cpus.data 204686305628                       # number of overall miss cycles
system.cpu.dcache.overall_miss_latency::total 204686305628                       # number of overall miss cycles
system.cpu.dcache.demand_accesses::.cpu.data            4                       # number of demand (read+write) accesses
system.cpu.dcache.demand_accesses::.switch_cpus.data     13956702                       # number of demand (read+write) accesses
system.cpu.dcache.demand_accesses::total     13956706                       # number of demand (read+write) accesses
system.cpu.dcache.overall_accesses::.cpu.data            4                       # number of overall (read+write) accesses
system.cpu.dcache.overall_accesses::.switch_cpus.data     13956702                       # number of overall (read+write) accesses
system.cpu.dcache.overall_accesses::total     13956706                       # number of overall (read+write) accesses
system.cpu.dcache.demand_miss_rate::.cpu.data     0.750000                       # miss rate for demand accesses
system.cpu.dcache.demand_miss_rate::.switch_cpus.data     0.228692                       # miss rate for demand accesses
system.cpu.dcache.demand_miss_rate::total     0.228692                       # miss rate for demand accesses
system.cpu.dcache.overall_miss_rate::.cpu.data     0.750000                       # miss rate for overall accesses
system.cpu.dcache.overall_miss_rate::.switch_cpus.data     0.228692                       # miss rate for overall accesses
system.cpu.dcache.overall_miss_rate::total     0.228692                       # miss rate for overall accesses
system.cpu.dcache.demand_avg_miss_latency::.switch_cpus.data 64129.142122                       # average overall miss latency
system.cpu.dcache.demand_avg_miss_latency::total 64129.081846                       # average overall miss latency
system.cpu.dcache.overall_avg_miss_latency::.switch_cpus.data 64129.142122                       # average overall miss latency
system.cpu.dcache.overall_avg_miss_latency::total 64129.081846                       # average overall miss latency
system.cpu.dcache.blocked_cycles::no_mshrs      4103788                       # number of cycles access was blocked
system.cpu.dcache.blocked_cycles::no_targets            0                       # number of cycles access was blocked
system.cpu.dcache.blocked::no_mshrs            124682                       # number of cycles access was blocked
system.cpu.dcache.blocked::no_targets               0                       # number of cycles access was blocked
system.cpu.dcache.avg_blocked_cycles::no_mshrs    32.914037                       # average number of cycles each access was blocked
system.cpu.dcache.avg_blocked_cycles::no_targets          nan                       # average number of cycles each access was blocked
system.cpu.dcache.writebacks::.writebacks       138823                       # number of writebacks
system.cpu.dcache.writebacks::total            138823                       # number of writebacks
system.cpu.dcache.demand_mshr_hits::.switch_cpus.data      2357981                       # number of demand (read+write) MSHR hits
system.cpu.dcache.demand_mshr_hits::total      2357981                       # number of demand (read+write) MSHR hits
system.cpu.dcache.overall_mshr_hits::.switch_cpus.data      2357981                       # number of overall MSHR hits
system.cpu.dcache.overall_mshr_hits::total      2357981                       # number of overall MSHR hits
system.cpu.dcache.demand_mshr_misses::.switch_cpus.data       833802                       # number of demand (read+write) MSHR misses
system.cpu.dcache.demand_mshr_misses::total       833802                       # number of demand (read+write) MSHR misses
system.cpu.dcache.overall_mshr_misses::.switch_cpus.data       833802                       # number of overall MSHR misses
system.cpu.dcache.overall_mshr_misses::total       833802                       # number of overall MSHR misses
system.cpu.dcache.demand_mshr_miss_latency::.switch_cpus.data  57919865131                       # number of demand (read+write) MSHR miss cycles
system.cpu.dcache.demand_mshr_miss_latency::total  57919865131                       # number of demand (read+write) MSHR miss cycles
system.cpu.dcache.overall_mshr_miss_latency::.switch_cpus.data  57919865131                       # number of overall MSHR miss cycles
system.cpu.dcache.overall_mshr_miss_latency::total  57919865131                       # number of overall MSHR miss cycles
system.cpu.dcache.demand_mshr_miss_rate::.switch_cpus.data     0.059742                       # mshr miss rate for demand accesses
system.cpu.dcache.demand_mshr_miss_rate::total     0.059742                       # mshr miss rate for demand accesses
system.cpu.dcache.overall_mshr_miss_rate::.switch_cpus.data     0.059742                       # mshr miss rate for overall accesses
system.cpu.dcache.overall_mshr_miss_rate::total     0.059742                       # mshr miss rate for overall accesses
system.cpu.dcache.demand_avg_mshr_miss_latency::.switch_cpus.data 69464.771170                       # average overall mshr miss latency
system.cpu.dcache.demand_avg_mshr_miss_latency::total 69464.771170                       # average overall mshr miss latency
system.cpu.dcache.overall_avg_mshr_miss_latency::.switch_cpus.data 69464.771170                       # average overall mshr miss latency
system.cpu.dcache.overall_avg_mshr_miss_latency::total 69464.771170                       # average overall mshr miss latency
system.cpu.dcache.replacements                 832781                       # number of replacements
system.cpu.dcache.ReadReq_hits::.cpu.data            1                       # number of ReadReq hits
system.cpu.dcache.ReadReq_hits::.switch_cpus.data      9427041                       # number of ReadReq hits
system.cpu.dcache.ReadReq_hits::total         9427042                       # number of ReadReq hits
system.cpu.dcache.ReadReq_misses::.cpu.data            3                       # number of ReadReq misses
system.cpu.dcache.ReadReq_misses::.switch_cpus.data      3150388                       # number of ReadReq misses
system.cpu.dcache.ReadReq_misses::total       3150391                       # number of ReadReq misses
system.cpu.dcache.ReadReq_miss_latency::.switch_cpus.data 201695090000                       # number of ReadReq miss cycles
system.cpu.dcache.ReadReq_miss_latency::total 201695090000                       # number of ReadReq miss cycles
system.cpu.dcache.ReadReq_accesses::.cpu.data            4                       # number of ReadReq accesses(hits+misses)
system.cpu.dcache.ReadReq_accesses::.switch_cpus.data     12577429                       # number of ReadReq accesses(hits+misses)
system.cpu.dcache.ReadReq_accesses::total     12577433                       # number of ReadReq accesses(hits+misses)
system.cpu.dcache.ReadReq_miss_rate::.cpu.data     0.750000                       # miss rate for ReadReq accesses
system.cpu.dcache.ReadReq_miss_rate::.switch_cpus.data     0.250479                       # miss rate for ReadReq accesses
system.cpu.dcache.ReadReq_miss_rate::total     0.250480                       # miss rate for ReadReq accesses
system.cpu.dcache.ReadReq_avg_miss_latency::.switch_cpus.data 64022.301380                       # average ReadReq miss latency
system.cpu.dcache.ReadReq_avg_miss_latency::total 64022.240414                       # average ReadReq miss latency
system.cpu.dcache.ReadReq_mshr_hits::.switch_cpus.data      2357703                       # number of ReadReq MSHR hits
system.cpu.dcache.ReadReq_mshr_hits::total      2357703                       # number of ReadReq MSHR hits
system.cpu.dcache.ReadReq_mshr_misses::.switch_cpus.data       792685                       # number of ReadReq MSHR misses
system.cpu.dcache.ReadReq_mshr_misses::total       792685                       # number of ReadReq MSHR misses
system.cpu.dcache.ReadReq_mshr_miss_latency::.switch_cpus.data  54982332500                       # number of ReadReq MSHR miss cycles
system.cpu.dcache.ReadReq_mshr_miss_latency::total  54982332500                       # number of ReadReq MSHR miss cycles
system.cpu.dcache.ReadReq_mshr_miss_rate::.switch_cpus.data     0.063024                       # mshr miss rate for ReadReq accesses
system.cpu.dcache.ReadReq_mshr_miss_rate::total     0.063024                       # mshr miss rate for ReadReq accesses
system.cpu.dcache.ReadReq_avg_mshr_miss_latency::.switch_cpus.data 69362.145745                       # average ReadReq mshr miss latency
system.cpu.dcache.ReadReq_avg_mshr_miss_latency::total 69362.145745                       # average ReadReq mshr miss latency
system.cpu.dcache.WriteReq_hits::.switch_cpus.data      1337878                       # number of WriteReq hits
system.cpu.dcache.WriteReq_hits::total        1337878                       # number of WriteReq hits
system.cpu.dcache.WriteReq_misses::.switch_cpus.data        41395                       # number of WriteReq misses
system.cpu.dcache.WriteReq_misses::total        41395                       # number of WriteReq misses
system.cpu.dcache.WriteReq_miss_latency::.switch_cpus.data   2991215628                       # number of WriteReq miss cycles
system.cpu.dcache.WriteReq_miss_latency::total   2991215628                       # number of WriteReq miss cycles
system.cpu.dcache.WriteReq_accesses::.switch_cpus.data      1379273                       # number of WriteReq accesses(hits+misses)
system.cpu.dcache.WriteReq_accesses::total      1379273                       # number of WriteReq accesses(hits+misses)
system.cpu.dcache.WriteReq_miss_rate::.switch_cpus.data     0.030012                       # miss rate for WriteReq accesses
system.cpu.dcache.WriteReq_miss_rate::total     0.030012                       # miss rate for WriteReq accesses
system.cpu.dcache.WriteReq_avg_miss_latency::.switch_cpus.data 72260.312308                       # average WriteReq miss latency
system.cpu.dcache.WriteReq_avg_miss_latency::total 72260.312308                       # average WriteReq miss latency
system.cpu.dcache.WriteReq_mshr_hits::.switch_cpus.data          278                       # number of WriteReq MSHR hits
system.cpu.dcache.WriteReq_mshr_hits::total          278                       # number of WriteReq MSHR hits
system.cpu.dcache.WriteReq_mshr_misses::.switch_cpus.data        41117                       # number of WriteReq MSHR misses
system.cpu.dcache.WriteReq_mshr_misses::total        41117                       # number of WriteReq MSHR misses
system.cpu.dcache.WriteReq_mshr_miss_latency::.switch_cpus.data   2937532631                       # number of WriteReq MSHR miss cycles
system.cpu.dcache.WriteReq_mshr_miss_latency::total   2937532631                       # number of WriteReq MSHR miss cycles
system.cpu.dcache.WriteReq_mshr_miss_rate::.switch_cpus.data     0.029811                       # mshr miss rate for WriteReq accesses
system.cpu.dcache.WriteReq_mshr_miss_rate::total     0.029811                       # mshr miss rate for WriteReq accesses
system.cpu.dcache.WriteReq_avg_mshr_miss_latency::.switch_cpus.data 71443.262665                       # average WriteReq mshr miss latency
system.cpu.dcache.WriteReq_avg_mshr_miss_latency::total 71443.262665                       # average WriteReq mshr miss latency
system.cpu.dcache.tags.pwrStateResidencyTicks::UNDEFINED 359131260628500                       # Cumulative time (in ticks) in various power states
system.cpu.dcache.tags.tagsinuse             0.104714                       # Cycle average of tags in use
system.cpu.dcache.tags.total_refs            11598725                       # Total number of references to valid blocks.
system.cpu.dcache.tags.sampled_refs            833805                       # Sample count of references to valid blocks.
system.cpu.dcache.tags.avg_refs             13.910597                       # Average number of references to valid blocks.
system.cpu.dcache.tags.warmup_cycle      359094507845000                       # Cycle when the warmup percentage was hit.
system.cpu.dcache.tags.occ_blocks::.cpu.data     0.000002                       # Average occupied blocks per requestor
system.cpu.dcache.tags.occ_blocks::.switch_cpus.data     0.104712                       # Average occupied blocks per requestor
system.cpu.dcache.tags.occ_percent::.cpu.data     0.000000                       # Average percentage of cache occupancy
system.cpu.dcache.tags.occ_percent::.switch_cpus.data     0.000102                       # Average percentage of cache occupancy
system.cpu.dcache.tags.occ_percent::total     0.000102                       # Average percentage of cache occupancy
system.cpu.dcache.tags.occ_task_id_blocks::1024         1024                       # Occupied blocks per task id
system.cpu.dcache.tags.age_task_id_blocks_1024::0          231                       # Occupied blocks per task id
system.cpu.dcache.tags.age_task_id_blocks_1024::1          709                       # Occupied blocks per task id
system.cpu.dcache.tags.age_task_id_blocks_1024::2           84                       # Occupied blocks per task id
system.cpu.dcache.tags.occ_task_id_percent::1024            1                       # Percentage of cache occupancy per task id
system.cpu.dcache.tags.tag_accesses          28747217                       # Number of tag accesses
system.cpu.dcache.tags.data_accesses         28747217                       # Number of data accesses

---------- End Simulation Statistics   ----------
