
---------- Begin Simulation Statistics ----------
final_tick                               572574693479500                       # Number of ticks from beginning of simulation (restored from checkpoints and never reset)
host_inst_rate                                  41768                       # Simulator instruction rate (inst/s)
host_mem_usage                                 880184                       # Number of bytes of host memory used
host_op_rate                                    93882                       # Simulator op (including micro ops) rate (op/s)
host_seconds                                   239.42                       # Real time elapsed on the host
host_tick_rate                               30825430                       # Simulator tick rate (ticks/s)
sim_freq                                 1000000000000                       # Frequency of simulated ticks
sim_insts                                    10000011                       # Number of instructions simulated
sim_ops                                      22477223                       # Number of ops (including micro ops) simulated
sim_seconds                                  0.007380                       # Number of seconds simulated
sim_ticks                                  7380225750                       # Number of ticks simulated
system.cpu.committedInsts                           8                       # Number of instructions committed
system.cpu.committedOps                            14                       # Number of ops (including micro ops) committed
system.cpu.dtb.rdAccesses                           4                       # TLB accesses on read requests
system.cpu.dtb.rdMisses                             0                       # TLB misses on read requests
system.cpu.dtb.wrAccesses                           2                       # TLB accesses on write requests
system.cpu.dtb.wrMisses                             0                       # TLB misses on write requests
system.cpu.idle_fraction                            0                       # Percentage of idle cycles
system.cpu.itb.rdAccesses                           0                       # TLB accesses on read requests
system.cpu.itb.rdMisses                             0                       # TLB misses on read requests
system.cpu.itb.wrAccesses                          14                       # TLB accesses on write requests
system.cpu.itb.wrMisses                             0                       # TLB misses on write requests
system.cpu.not_idle_fraction                        1                       # Percentage of non-idle cycles
system.cpu.numCycles                               20                       # number of cpu cycles simulated
system.cpu.numWorkItemsCompleted                    0                       # number of work items this cpu completed
system.cpu.numWorkItemsStarted                      0                       # number of work items this cpu started
system.cpu.num_busy_cycles                         20                       # Number of busy cycles
system.cpu.num_conditional_control_insts            0                       # number of instructions that are conditional controls
system.cpu.num_fp_alu_accesses                     12                       # Number of float alu accesses
system.cpu.num_fp_insts                            12                       # number of float instructions
system.cpu.num_fp_register_reads                   22                       # number of times the floating registers were read
system.cpu.num_fp_register_writes                  10                       # number of times the floating registers were written
system.cpu.num_func_calls                           0                       # number of times a function call or return occured
system.cpu.num_idle_cycles                          0                       # Number of idle cycles
system.cpu.num_int_alu_accesses                     6                       # Number of integer alu accesses
system.cpu.num_int_insts                            6                       # number of integer instructions
system.cpu.num_int_register_reads                  18                       # number of times the integer registers were read
system.cpu.num_int_register_writes                  2                       # number of times the integer registers were written
system.cpu.num_load_insts                           4                       # Number of load instructions
system.cpu.num_mem_refs                             6                       # number of memory refs
system.cpu.num_store_insts                          2                       # Number of store instructions
system.cpu.num_vec_alu_accesses                     0                       # Number of vector alu accesses
system.cpu.num_vec_insts                            0                       # number of vector instructions
system.cpu.num_vec_register_reads                   0                       # number of times the vector registers were read
system.cpu.num_vec_register_writes                  0                       # number of times the vector registers were written
system.cpu.op_class::No_OpClass                     0      0.00%      0.00% # Class of executed instruction
system.cpu.op_class::IntAlu                         4     28.57%     28.57% # Class of executed instruction
system.cpu.op_class::IntMult                        0      0.00%     28.57% # Class of executed instruction
system.cpu.op_class::IntDiv                         0      0.00%     28.57% # Class of executed instruction
system.cpu.op_class::FloatAdd                       0      0.00%     28.57% # Class of executed instruction
system.cpu.op_class::FloatCmp                       0      0.00%     28.57% # Class of executed instruction
system.cpu.op_class::FloatCvt                       0      0.00%     28.57% # Class of executed instruction
system.cpu.op_class::FloatMult                      0      0.00%     28.57% # Class of executed instruction
system.cpu.op_class::FloatMultAcc                   0      0.00%     28.57% # Class of executed instruction
system.cpu.op_class::FloatDiv                       0      0.00%     28.57% # Class of executed instruction
system.cpu.op_class::FloatMisc                      0      0.00%     28.57% # Class of executed instruction
system.cpu.op_class::FloatSqrt                      0      0.00%     28.57% # Class of executed instruction
system.cpu.op_class::SimdAdd                        0      0.00%     28.57% # Class of executed instruction
system.cpu.op_class::SimdAddAcc                     0      0.00%     28.57% # Class of executed instruction
system.cpu.op_class::SimdAlu                        0      0.00%     28.57% # Class of executed instruction
system.cpu.op_class::SimdCmp                        0      0.00%     28.57% # Class of executed instruction
system.cpu.op_class::SimdCvt                        0      0.00%     28.57% # Class of executed instruction
system.cpu.op_class::SimdMisc                       0      0.00%     28.57% # Class of executed instruction
system.cpu.op_class::SimdMult                       0      0.00%     28.57% # Class of executed instruction
system.cpu.op_class::SimdMultAcc                    0      0.00%     28.57% # Class of executed instruction
system.cpu.op_class::SimdShift                      0      0.00%     28.57% # Class of executed instruction
system.cpu.op_class::SimdShiftAcc                   0      0.00%     28.57% # Class of executed instruction
system.cpu.op_class::SimdDiv                        0      0.00%     28.57% # Class of executed instruction
system.cpu.op_class::SimdSqrt                       0      0.00%     28.57% # Class of executed instruction
system.cpu.op_class::SimdFloatAdd                   2     14.29%     42.86% # Class of executed instruction
system.cpu.op_class::SimdFloatAlu                   0      0.00%     42.86% # Class of executed instruction
system.cpu.op_class::SimdFloatCmp                   0      0.00%     42.86% # Class of executed instruction
system.cpu.op_class::SimdFloatCvt                   0      0.00%     42.86% # Class of executed instruction
system.cpu.op_class::SimdFloatDiv                   0      0.00%     42.86% # Class of executed instruction
system.cpu.op_class::SimdFloatMisc                  0      0.00%     42.86% # Class of executed instruction
system.cpu.op_class::SimdFloatMult                  2     14.29%     57.14% # Class of executed instruction
system.cpu.op_class::SimdFloatMultAcc               0      0.00%     57.14% # Class of executed instruction
system.cpu.op_class::SimdFloatSqrt                  0      0.00%     57.14% # Class of executed instruction
system.cpu.op_class::SimdReduceAdd                  0      0.00%     57.14% # Class of executed instruction
system.cpu.op_class::SimdReduceAlu                  0      0.00%     57.14% # Class of executed instruction
system.cpu.op_class::SimdReduceCmp                  0      0.00%     57.14% # Class of executed instruction
system.cpu.op_class::SimdFloatReduceAdd             0      0.00%     57.14% # Class of executed instruction
system.cpu.op_class::SimdFloatReduceCmp             0      0.00%     57.14% # Class of executed instruction
system.cpu.op_class::SimdAes                        0      0.00%     57.14% # Class of executed instruction
system.cpu.op_class::SimdAesMix                     0      0.00%     57.14% # Class of executed instruction
system.cpu.op_class::SimdSha1Hash                   0      0.00%     57.14% # Class of executed instruction
system.cpu.op_class::SimdSha1Hash2                  0      0.00%     57.14% # Class of executed instruction
system.cpu.op_class::SimdSha256Hash                 0      0.00%     57.14% # Class of executed instruction
system.cpu.op_class::SimdSha256Hash2                0      0.00%     57.14% # Class of executed instruction
system.cpu.op_class::SimdShaSigma2                  0      0.00%     57.14% # Class of executed instruction
system.cpu.op_class::SimdShaSigma3                  0      0.00%     57.14% # Class of executed instruction
system.cpu.op_class::SimdPredAlu                    0      0.00%     57.14% # Class of executed instruction
system.cpu.op_class::MemRead                        2     14.29%     71.43% # Class of executed instruction
system.cpu.op_class::MemWrite                       0      0.00%     71.43% # Class of executed instruction
system.cpu.op_class::FloatMemRead                   2     14.29%     85.71% # Class of executed instruction
system.cpu.op_class::FloatMemWrite                  2     14.29%    100.00% # Class of executed instruction
system.cpu.op_class::IprAccess                      0      0.00%    100.00% # Class of executed instruction
system.cpu.op_class::InstPrefetch                   0      0.00%    100.00% # Class of executed instruction
system.cpu.op_class::total                         14                       # Class of executed instruction
system.cpu.workload.numSyscalls                     0                       # Number of system calls
system.membus.snoop_filter.hit_multi_requests            0                       # Number of requests hitting in the snoop filter with multiple (>1) holders of the requested data.
system.membus.snoop_filter.hit_multi_snoops            0                       # Number of snoops hitting in the snoop filter with multiple (>1) holders of the requested data.
system.membus.snoop_filter.hit_single_requests        75463                       # Number of requests hitting in the snoop filter with a single holder of the requested data.
system.membus.snoop_filter.hit_single_snoops            0                       # Number of snoops hitting in the snoop filter with a single holder of the requested data.
system.membus.snoop_filter.tot_requests        159398                       # Total number of requests made to the snoop filter.
system.membus.snoop_filter.tot_snoops               0                       # Total number of snoops made to the snoop filter.
system.switch_cpus.branchPred.BTBCorrect            0                       # Number of correct BTB predictions (this stat may not work properly.
system.switch_cpus.branchPred.BTBHitPct      0.000000                       # BTB Hit Percentage
system.switch_cpus.branchPred.BTBHits               0                       # Number of BTB hits
system.switch_cpus.branchPred.BTBLookups        35150                       # Number of BTB lookups
system.switch_cpus.branchPred.RASInCorrect            0                       # Number of incorrect RAS predictions.
system.switch_cpus.branchPred.condIncorrect          807                       # Number of conditional branches incorrect
system.switch_cpus.branchPred.condPredicted        40251                       # Number of conditional branches predicted
system.switch_cpus.branchPred.indirectHits        28172                       # Number of indirect target hits.
system.switch_cpus.branchPred.indirectLookups        35150                       # Number of indirect predictor lookups.
system.switch_cpus.branchPred.indirectMisses         6978                       # Number of indirect misses.
system.switch_cpus.branchPred.lookups           45754                       # Number of BP lookups
system.switch_cpus.branchPred.usedRAS            5129                       # Number of times the RAS was used to get a target.
system.switch_cpus.branchPredindirectMispredicted           60                       # Number of mispredicted indirect branches.
system.switch_cpus.cc_regfile_reads            196484                       # number of cc regfile reads
system.switch_cpus.cc_regfile_writes           329224                       # number of cc regfile writes
system.switch_cpus.commit.amos                      0                       # Number of atomic instructions committed
system.switch_cpus.commit.branchMispredicts          807                       # The number of times a branch was mispredicted
system.switch_cpus.commit.branches              19425                       # Number of branches committed
system.switch_cpus.commit.bw_lim_events       1555228                       # number cycles where commit BW limit reached
system.switch_cpus.commit.commitNonSpecStalls          320                       # The number of times commit has been forced to stall to communicate backwards
system.switch_cpus.commit.commitSquashedInsts       469145                       # The number of squashed insts skipped by commit
system.switch_cpus.commit.committedInsts     10000003                       # Number of instructions committed
system.switch_cpus.commit.committedOps       22477209                       # Number of ops (including micro ops) committed
system.switch_cpus.commit.committed_per_cycle::samples     14667285                       # Number of insts commited each cycle
system.switch_cpus.commit.committed_per_cycle::mean     1.532472                       # Number of insts commited each cycle
system.switch_cpus.commit.committed_per_cycle::stdev     2.720161                       # Number of insts commited each cycle
system.switch_cpus.commit.committed_per_cycle::underflows            0      0.00%      0.00% # Number of insts commited each cycle
system.switch_cpus.commit.committed_per_cycle::0      9994640     68.14%     68.14% # Number of insts commited each cycle
system.switch_cpus.commit.committed_per_cycle::1       681290      4.64%     72.79% # Number of insts commited each cycle
system.switch_cpus.commit.committed_per_cycle::2       821762      5.60%     78.39% # Number of insts commited each cycle
system.switch_cpus.commit.committed_per_cycle::3       262080      1.79%     80.18% # Number of insts commited each cycle
system.switch_cpus.commit.committed_per_cycle::4       561003      3.82%     84.00% # Number of insts commited each cycle
system.switch_cpus.commit.committed_per_cycle::5       262504      1.79%     85.79% # Number of insts commited each cycle
system.switch_cpus.commit.committed_per_cycle::6       333647      2.27%     88.07% # Number of insts commited each cycle
system.switch_cpus.commit.committed_per_cycle::7       195131      1.33%     89.40% # Number of insts commited each cycle
system.switch_cpus.commit.committed_per_cycle::8      1555228     10.60%    100.00% # Number of insts commited each cycle
system.switch_cpus.commit.committed_per_cycle::overflows            0      0.00%    100.00% # Number of insts commited each cycle
system.switch_cpus.commit.committed_per_cycle::min_value            0                       # Number of insts commited each cycle
system.switch_cpus.commit.committed_per_cycle::max_value            8                       # Number of insts commited each cycle
system.switch_cpus.commit.committed_per_cycle::total     14667285                       # Number of insts commited each cycle
system.switch_cpus.commit.fp_insts           21302588                       # Number of committed floating point instructions.
system.switch_cpus.commit.function_calls          320                       # Number of function calls committed.
system.switch_cpus.commit.int_insts          10363628                       # Number of committed integer instructions.
system.switch_cpus.commit.loads               7651059                       # Number of loads committed
system.switch_cpus.commit.membars                   0                       # Number of memory barriers committed
system.switch_cpus.commit.op_class_0::No_OpClass          637      0.00%      0.00% # Class of committed instruction
system.switch_cpus.commit.op_class_0::IntAlu      3034818     13.50%     13.50% # Class of committed instruction
system.switch_cpus.commit.op_class_0::IntMult          658      0.00%     13.51% # Class of committed instruction
system.switch_cpus.commit.op_class_0::IntDiv            0      0.00%     13.51% # Class of committed instruction
system.switch_cpus.commit.op_class_0::FloatAdd          328      0.00%     13.51% # Class of committed instruction
system.switch_cpus.commit.op_class_0::FloatCmp            0      0.00%     13.51% # Class of committed instruction
system.switch_cpus.commit.op_class_0::FloatCvt            0      0.00%     13.51% # Class of committed instruction
system.switch_cpus.commit.op_class_0::FloatMult            0      0.00%     13.51% # Class of committed instruction
system.switch_cpus.commit.op_class_0::FloatMultAcc            0      0.00%     13.51% # Class of committed instruction
system.switch_cpus.commit.op_class_0::FloatDiv            0      0.00%     13.51% # Class of committed instruction
system.switch_cpus.commit.op_class_0::FloatMisc            0      0.00%     13.51% # Class of committed instruction
system.switch_cpus.commit.op_class_0::FloatSqrt            0      0.00%     13.51% # Class of committed instruction
system.switch_cpus.commit.op_class_0::SimdAdd            0      0.00%     13.51% # Class of committed instruction
system.switch_cpus.commit.op_class_0::SimdAddAcc            0      0.00%     13.51% # Class of committed instruction
system.switch_cpus.commit.op_class_0::SimdAlu        47722      0.21%     13.72% # Class of committed instruction
system.switch_cpus.commit.op_class_0::SimdCmp            0      0.00%     13.72% # Class of committed instruction
system.switch_cpus.commit.op_class_0::SimdCvt            0      0.00%     13.72% # Class of committed instruction
system.switch_cpus.commit.op_class_0::SimdMisc            0      0.00%     13.72% # Class of committed instruction
system.switch_cpus.commit.op_class_0::SimdMult            0      0.00%     13.72% # Class of committed instruction
system.switch_cpus.commit.op_class_0::SimdMultAcc            0      0.00%     13.72% # Class of committed instruction
system.switch_cpus.commit.op_class_0::SimdShift            0      0.00%     13.72% # Class of committed instruction
system.switch_cpus.commit.op_class_0::SimdShiftAcc            0      0.00%     13.72% # Class of committed instruction
system.switch_cpus.commit.op_class_0::SimdDiv            0      0.00%     13.72% # Class of committed instruction
system.switch_cpus.commit.op_class_0::SimdSqrt            0      0.00%     13.72% # Class of committed instruction
system.switch_cpus.commit.op_class_0::SimdFloatAdd      5476750     24.37%     38.09% # Class of committed instruction
system.switch_cpus.commit.op_class_0::SimdFloatAlu            0      0.00%     38.09% # Class of committed instruction
system.switch_cpus.commit.op_class_0::SimdFloatCmp            0      0.00%     38.09% # Class of committed instruction
system.switch_cpus.commit.op_class_0::SimdFloatCvt            0      0.00%     38.09% # Class of committed instruction
system.switch_cpus.commit.op_class_0::SimdFloatDiv        11440      0.05%     38.14% # Class of committed instruction
system.switch_cpus.commit.op_class_0::SimdFloatMisc            0      0.00%     38.14% # Class of committed instruction
system.switch_cpus.commit.op_class_0::SimdFloatMult      4002198     17.81%     55.94% # Class of committed instruction
system.switch_cpus.commit.op_class_0::SimdFloatMultAcc            0      0.00%     55.94% # Class of committed instruction
system.switch_cpus.commit.op_class_0::SimdFloatSqrt            0      0.00%     55.94% # Class of committed instruction
system.switch_cpus.commit.op_class_0::SimdReduceAdd            0      0.00%     55.94% # Class of committed instruction
system.switch_cpus.commit.op_class_0::SimdReduceAlu            0      0.00%     55.94% # Class of committed instruction
system.switch_cpus.commit.op_class_0::SimdReduceCmp            0      0.00%     55.94% # Class of committed instruction
system.switch_cpus.commit.op_class_0::SimdFloatReduceAdd            0      0.00%     55.94% # Class of committed instruction
system.switch_cpus.commit.op_class_0::SimdFloatReduceCmp            0      0.00%     55.94% # Class of committed instruction
system.switch_cpus.commit.op_class_0::SimdAes            0      0.00%     55.94% # Class of committed instruction
system.switch_cpus.commit.op_class_0::SimdAesMix            0      0.00%     55.94% # Class of committed instruction
system.switch_cpus.commit.op_class_0::SimdSha1Hash            0      0.00%     55.94% # Class of committed instruction
system.switch_cpus.commit.op_class_0::SimdSha1Hash2            0      0.00%     55.94% # Class of committed instruction
system.switch_cpus.commit.op_class_0::SimdSha256Hash            0      0.00%     55.94% # Class of committed instruction
system.switch_cpus.commit.op_class_0::SimdSha256Hash2            0      0.00%     55.94% # Class of committed instruction
system.switch_cpus.commit.op_class_0::SimdShaSigma2            0      0.00%     55.94% # Class of committed instruction
system.switch_cpus.commit.op_class_0::SimdShaSigma3            0      0.00%     55.94% # Class of committed instruction
system.switch_cpus.commit.op_class_0::SimdPredAlu            0      0.00%     55.94% # Class of committed instruction
system.switch_cpus.commit.op_class_0::MemRead       657061      2.92%     58.87% # Class of committed instruction
system.switch_cpus.commit.op_class_0::MemWrite        55633      0.25%     59.11% # Class of committed instruction
system.switch_cpus.commit.op_class_0::FloatMemRead      6993998     31.12%     90.23% # Class of committed instruction
system.switch_cpus.commit.op_class_0::FloatMemWrite      2195966      9.77%    100.00% # Class of committed instruction
system.switch_cpus.commit.op_class_0::IprAccess            0      0.00%    100.00% # Class of committed instruction
system.switch_cpus.commit.op_class_0::InstPrefetch            0      0.00%    100.00% # Class of committed instruction
system.switch_cpus.commit.op_class_0::total     22477209                       # Class of committed instruction
system.switch_cpus.commit.refs                9902658                       # Number of memory references committed
system.switch_cpus.commit.swp_count                 0                       # Number of s/w prefetches committed
system.switch_cpus.commit.vec_insts                 0                       # Number of committed Vector instructions.
system.switch_cpus.committedInsts            10000003                       # Number of Instructions Simulated
system.switch_cpus.committedOps              22477209                       # Number of Ops (including micro ops) Simulated
system.switch_cpus.cpi                       1.476043                       # CPI: Cycles Per Instruction
system.switch_cpus.cpi_total                 1.476043                       # CPI: Total CPI of All Threads
system.switch_cpus.decode.BlockedCycles      10884155                       # Number of cycles decode is blocked
system.switch_cpus.decode.DecodedInsts       23108632                       # Number of instructions handled by decode
system.switch_cpus.decode.IdleCycles           738654                       # Number of cycles decode is idle
system.switch_cpus.decode.RunCycles           2474187                       # Number of cycles decode is running
system.switch_cpus.decode.SquashCycles           6092                       # Number of cycles decode is squashing
system.switch_cpus.decode.UnblockCycles        625746                       # Number of cycles decode is unblocking
system.switch_cpus.dtb.rdAccesses             7786216                       # TLB accesses on read requests
system.switch_cpus.dtb.rdMisses                  1499                       # TLB misses on read requests
system.switch_cpus.dtb.wrAccesses             2367131                       # TLB accesses on write requests
system.switch_cpus.dtb.wrMisses                   572                       # TLB misses on write requests
system.switch_cpus.fetch.Branches               45754                       # Number of branches that fetch encountered
system.switch_cpus.fetch.CacheLines           1084112                       # Number of cache lines fetched
system.switch_cpus.fetch.Cycles              13616048                       # Number of cycles fetch has run and was not squashing or blocked
system.switch_cpus.fetch.IcacheSquashes           118                       # Number of outstanding Icache misses that were squashed
system.switch_cpus.fetch.Insts               10473928                       # Number of instructions fetch has processed
system.switch_cpus.fetch.SquashCycles           12184                       # Number of cycles fetch has spent squashing
system.switch_cpus.fetch.branchRate          0.003100                       # Number of branch fetches per cycle
system.switch_cpus.fetch.icacheStallCycles      1106814                       # Number of cycles fetch is stalled on an Icache miss
system.switch_cpus.fetch.predictedBranches        33301                       # Number of branches that fetch has predicted taken
system.switch_cpus.fetch.rate                0.709595                       # Number of inst fetches per cycle
system.switch_cpus.fetch.rateDist::samples     14728954                       # Number of instructions fetched each cycle (Total)
system.switch_cpus.fetch.rateDist::mean      1.582279                       # Number of instructions fetched each cycle (Total)
system.switch_cpus.fetch.rateDist::stdev     3.033805                       # Number of instructions fetched each cycle (Total)
system.switch_cpus.fetch.rateDist::underflows            0      0.00%      0.00% # Number of instructions fetched each cycle (Total)
system.switch_cpus.fetch.rateDist::0         11249636     76.38%     76.38% # Number of instructions fetched each cycle (Total)
system.switch_cpus.fetch.rateDist::1           105293      0.71%     77.09% # Number of instructions fetched each cycle (Total)
system.switch_cpus.fetch.rateDist::2           214918      1.46%     78.55% # Number of instructions fetched each cycle (Total)
system.switch_cpus.fetch.rateDist::3           169498      1.15%     79.70% # Number of instructions fetched each cycle (Total)
system.switch_cpus.fetch.rateDist::4           179222      1.22%     80.92% # Number of instructions fetched each cycle (Total)
system.switch_cpus.fetch.rateDist::5           142310      0.97%     81.89% # Number of instructions fetched each cycle (Total)
system.switch_cpus.fetch.rateDist::6           219062      1.49%     83.37% # Number of instructions fetched each cycle (Total)
system.switch_cpus.fetch.rateDist::7            73238      0.50%     83.87% # Number of instructions fetched each cycle (Total)
system.switch_cpus.fetch.rateDist::8          2375777     16.13%    100.00% # Number of instructions fetched each cycle (Total)
system.switch_cpus.fetch.rateDist::overflows            0      0.00%    100.00% # Number of instructions fetched each cycle (Total)
system.switch_cpus.fetch.rateDist::min_value            0                       # Number of instructions fetched each cycle (Total)
system.switch_cpus.fetch.rateDist::max_value            8                       # Number of instructions fetched each cycle (Total)
system.switch_cpus.fetch.rateDist::total     14728954                       # Number of instructions fetched each cycle (Total)
system.switch_cpus.fp_regfile_reads          35988850                       # number of floating regfile reads
system.switch_cpus.fp_regfile_writes         19172246                       # number of floating regfile writes
system.switch_cpus.idleCycles                   31477                       # Total number of cycles that the CPU has spent unscheduled due to idling
system.switch_cpus.iew.branchMispredicts          839                       # Number of branch mispredicts detected at execute
system.switch_cpus.iew.exec_branches            37005                       # Number of branches executed
system.switch_cpus.iew.exec_nop                     0                       # number of nop insts executed
system.switch_cpus.iew.exec_rate             1.567211                       # Inst execution rate
system.switch_cpus.iew.exec_refs             10315229                       # number of memory reference insts executed
system.switch_cpus.iew.exec_stores            2367131                       # Number of stores executed
system.switch_cpus.iew.exec_swp                     0                       # number of swp insts executed
system.switch_cpus.iew.iewBlockCycles          307032                       # Number of cycles IEW is blocking
system.switch_cpus.iew.iewDispLoadInsts       7789733                       # Number of dispatched load instructions
system.switch_cpus.iew.iewDispNonSpecInsts            0                       # Number of dispatched non-speculative instructions
system.switch_cpus.iew.iewDispSquashedInsts            1                       # Number of squashed instructions skipped by dispatch
system.switch_cpus.iew.iewDispStoreInsts      2419013                       # Number of dispatched store instructions
system.switch_cpus.iew.iewDispatchedInsts     23042511                       # Number of instructions dispatched to IQ
system.switch_cpus.iew.iewExecLoadInsts       7948098                       # Number of load instructions executed
system.switch_cpus.iew.iewExecSquashedInsts         4681                       # Number of squashed instructions skipped in execute
system.switch_cpus.iew.iewExecutedInsts      23132713                       # Number of executed instructions
system.switch_cpus.iew.iewIQFullEvents           3616                       # Number of times the IQ has become full, causing a stall
system.switch_cpus.iew.iewIdleCycles                0                       # Number of cycles IEW is idle
system.switch_cpus.iew.iewLSQFullEvents       3595510                       # Number of times the LSQ has become full, causing a stall
system.switch_cpus.iew.iewSquashCycles           6092                       # Number of cycles IEW is squashing
system.switch_cpus.iew.iewUnblockCycles       3604271                       # Number of cycles IEW is unblocking
system.switch_cpus.iew.lsq.thread0.blockedLoads            0                       # Number of blocked loads due to partial load-store forwarding
system.switch_cpus.iew.lsq.thread0.cacheBlocked        30818                       # Number of times an access to memory failed due to the cache being blocked
system.switch_cpus.iew.lsq.thread0.forwLoads       585141                       # Number of loads that had data forwarded from stores
system.switch_cpus.iew.lsq.thread0.ignoredResponses           10                       # Number of memory responses ignored because the instruction is squashed
system.switch_cpus.iew.lsq.thread0.invAddrLoads            0                       # Number of loads ignored due to an invalid address
system.switch_cpus.iew.lsq.thread0.invAddrSwpfs            0                       # Number of software prefetches ignored due to an invalid address
system.switch_cpus.iew.lsq.thread0.memOrderViolation          249                       # Number of memory ordering violations
system.switch_cpus.iew.lsq.thread0.rescheduledLoads            0                       # Number of loads that were rescheduled
system.switch_cpus.iew.lsq.thread0.squashedLoads       138646                       # Number of loads squashed
system.switch_cpus.iew.lsq.thread0.squashedStores       167404                       # Number of stores squashed
system.switch_cpus.iew.memOrderViolationEvents          249                       # Number of memory order violations
system.switch_cpus.iew.predictedNotTakenIncorrect          148                       # Number of branches that were predicted not taken incorrectly
system.switch_cpus.iew.predictedTakenIncorrect          691                       # Number of branches that were predicted taken incorrectly
system.switch_cpus.iew.wb_consumers          28902616                       # num instructions consuming a value
system.switch_cpus.iew.wb_count              22919122                       # cumulative count of insts written-back
system.switch_cpus.iew.wb_fanout             0.606110                       # average fanout of values written-back
system.switch_cpus.iew.wb_producers          17518168                       # num instructions producing a value
system.switch_cpus.iew.wb_rate               1.552741                       # insts written-back per cycle
system.switch_cpus.iew.wb_sent               22962134                       # cumulative count of insts sent to commit
system.switch_cpus.int_regfile_reads         21303552                       # number of integer regfile reads
system.switch_cpus.int_regfile_writes         1345088                       # number of integer regfile writes
system.switch_cpus.ipc                       0.677487                       # IPC: Instructions Per Cycle
system.switch_cpus.ipc_total                 0.677487                       # IPC: Total IPC of All Threads
system.switch_cpus.iq.FU_type_0::No_OpClass        41140      0.18%      0.18% # Type of FU issued
system.switch_cpus.iq.FU_type_0::IntAlu       3237438     13.99%     14.17% # Type of FU issued
system.switch_cpus.iq.FU_type_0::IntMult          658      0.00%     14.17% # Type of FU issued
system.switch_cpus.iq.FU_type_0::IntDiv             0      0.00%     14.17% # Type of FU issued
system.switch_cpus.iq.FU_type_0::FloatAdd         2684      0.01%     14.18% # Type of FU issued
system.switch_cpus.iq.FU_type_0::FloatCmp            0      0.00%     14.18% # Type of FU issued
system.switch_cpus.iq.FU_type_0::FloatCvt            0      0.00%     14.18% # Type of FU issued
system.switch_cpus.iq.FU_type_0::FloatMult            0      0.00%     14.18% # Type of FU issued
system.switch_cpus.iq.FU_type_0::FloatMultAcc            0      0.00%     14.18% # Type of FU issued
system.switch_cpus.iq.FU_type_0::FloatDiv            0      0.00%     14.18% # Type of FU issued
system.switch_cpus.iq.FU_type_0::FloatMisc            0      0.00%     14.18% # Type of FU issued
system.switch_cpus.iq.FU_type_0::FloatSqrt            0      0.00%     14.18% # Type of FU issued
system.switch_cpus.iq.FU_type_0::SimdAdd            0      0.00%     14.18% # Type of FU issued
system.switch_cpus.iq.FU_type_0::SimdAddAcc            0      0.00%     14.18% # Type of FU issued
system.switch_cpus.iq.FU_type_0::SimdAlu        47748      0.21%     14.39% # Type of FU issued
system.switch_cpus.iq.FU_type_0::SimdCmp            0      0.00%     14.39% # Type of FU issued
system.switch_cpus.iq.FU_type_0::SimdCvt            0      0.00%     14.39% # Type of FU issued
system.switch_cpus.iq.FU_type_0::SimdMisc            0      0.00%     14.39% # Type of FU issued
system.switch_cpus.iq.FU_type_0::SimdMult            0      0.00%     14.39% # Type of FU issued
system.switch_cpus.iq.FU_type_0::SimdMultAcc            0      0.00%     14.39% # Type of FU issued
system.switch_cpus.iq.FU_type_0::SimdShift            0      0.00%     14.39% # Type of FU issued
system.switch_cpus.iq.FU_type_0::SimdShiftAcc            0      0.00%     14.39% # Type of FU issued
system.switch_cpus.iq.FU_type_0::SimdDiv            0      0.00%     14.39% # Type of FU issued
system.switch_cpus.iq.FU_type_0::SimdSqrt            0      0.00%     14.39% # Type of FU issued
system.switch_cpus.iq.FU_type_0::SimdFloatAdd      5476999     23.67%     38.06% # Type of FU issued
system.switch_cpus.iq.FU_type_0::SimdFloatAlu            0      0.00%     38.06% # Type of FU issued
system.switch_cpus.iq.FU_type_0::SimdFloatCmp            0      0.00%     38.06% # Type of FU issued
system.switch_cpus.iq.FU_type_0::SimdFloatCvt            0      0.00%     38.06% # Type of FU issued
system.switch_cpus.iq.FU_type_0::SimdFloatDiv        11440      0.05%     38.11% # Type of FU issued
system.switch_cpus.iq.FU_type_0::SimdFloatMisc            0      0.00%     38.11% # Type of FU issued
system.switch_cpus.iq.FU_type_0::SimdFloatMult      4002309     17.30%     55.41% # Type of FU issued
system.switch_cpus.iq.FU_type_0::SimdFloatMultAcc            0      0.00%     55.41% # Type of FU issued
system.switch_cpus.iq.FU_type_0::SimdFloatSqrt            0      0.00%     55.41% # Type of FU issued
system.switch_cpus.iq.FU_type_0::SimdReduceAdd            0      0.00%     55.41% # Type of FU issued
system.switch_cpus.iq.FU_type_0::SimdReduceAlu            0      0.00%     55.41% # Type of FU issued
system.switch_cpus.iq.FU_type_0::SimdReduceCmp            0      0.00%     55.41% # Type of FU issued
system.switch_cpus.iq.FU_type_0::SimdFloatReduceAdd            0      0.00%     55.41% # Type of FU issued
system.switch_cpus.iq.FU_type_0::SimdFloatReduceCmp            0      0.00%     55.41% # Type of FU issued
system.switch_cpus.iq.FU_type_0::SimdAes            0      0.00%     55.41% # Type of FU issued
system.switch_cpus.iq.FU_type_0::SimdAesMix            0      0.00%     55.41% # Type of FU issued
system.switch_cpus.iq.FU_type_0::SimdSha1Hash            0      0.00%     55.41% # Type of FU issued
system.switch_cpus.iq.FU_type_0::SimdSha1Hash2            0      0.00%     55.41% # Type of FU issued
system.switch_cpus.iq.FU_type_0::SimdSha256Hash            0      0.00%     55.41% # Type of FU issued
system.switch_cpus.iq.FU_type_0::SimdSha256Hash2            0      0.00%     55.41% # Type of FU issued
system.switch_cpus.iq.FU_type_0::SimdShaSigma2            0      0.00%     55.41% # Type of FU issued
system.switch_cpus.iq.FU_type_0::SimdShaSigma3            0      0.00%     55.41% # Type of FU issued
system.switch_cpus.iq.FU_type_0::SimdPredAlu            0      0.00%     55.41% # Type of FU issued
system.switch_cpus.iq.FU_type_0::MemRead       765251      3.31%     58.72% # Type of FU issued
system.switch_cpus.iq.FU_type_0::MemWrite        94623      0.41%     59.13% # Type of FU issued
system.switch_cpus.iq.FU_type_0::FloatMemRead      7184441     31.05%     90.18% # Type of FU issued
system.switch_cpus.iq.FU_type_0::FloatMemWrite      2272664      9.82%    100.00% # Type of FU issued
system.switch_cpus.iq.FU_type_0::IprAccess            0      0.00%    100.00% # Type of FU issued
system.switch_cpus.iq.FU_type_0::InstPrefetch            0      0.00%    100.00% # Type of FU issued
system.switch_cpus.iq.FU_type_0::total       23137395                       # Type of FU issued
system.switch_cpus.iq.fp_alu_accesses        22515696                       # Number of floating point alu accesses
system.switch_cpus.iq.fp_inst_queue_reads     44088664                       # Number of floating instruction queue reads
system.switch_cpus.iq.fp_inst_queue_wakeup_accesses     21443101                       # Number of floating instruction queue wakeup accesses
system.switch_cpus.iq.fp_inst_queue_writes     21671173                       # Number of floating instruction queue writes
system.switch_cpus.iq.fu_busy_cnt             1044494                       # FU busy when requested
system.switch_cpus.iq.fu_busy_rate           0.045143                       # FU busy rate (busy events/executed inst)
system.switch_cpus.iq.fu_full::No_OpClass            0      0.00%      0.00% # attempts to use FU when none available
system.switch_cpus.iq.fu_full::IntAlu             623      0.06%      0.06% # attempts to use FU when none available
system.switch_cpus.iq.fu_full::IntMult              0      0.00%      0.06% # attempts to use FU when none available
system.switch_cpus.iq.fu_full::IntDiv               0      0.00%      0.06% # attempts to use FU when none available
system.switch_cpus.iq.fu_full::FloatAdd             0      0.00%      0.06% # attempts to use FU when none available
system.switch_cpus.iq.fu_full::FloatCmp             0      0.00%      0.06% # attempts to use FU when none available
system.switch_cpus.iq.fu_full::FloatCvt             0      0.00%      0.06% # attempts to use FU when none available
system.switch_cpus.iq.fu_full::FloatMult            0      0.00%      0.06% # attempts to use FU when none available
system.switch_cpus.iq.fu_full::FloatMultAcc            0      0.00%      0.06% # attempts to use FU when none available
system.switch_cpus.iq.fu_full::FloatDiv             0      0.00%      0.06% # attempts to use FU when none available
system.switch_cpus.iq.fu_full::FloatMisc            0      0.00%      0.06% # attempts to use FU when none available
system.switch_cpus.iq.fu_full::FloatSqrt            0      0.00%      0.06% # attempts to use FU when none available
system.switch_cpus.iq.fu_full::SimdAdd              0      0.00%      0.06% # attempts to use FU when none available
system.switch_cpus.iq.fu_full::SimdAddAcc            0      0.00%      0.06% # attempts to use FU when none available
system.switch_cpus.iq.fu_full::SimdAlu              0      0.00%      0.06% # attempts to use FU when none available
system.switch_cpus.iq.fu_full::SimdCmp              0      0.00%      0.06% # attempts to use FU when none available
system.switch_cpus.iq.fu_full::SimdCvt              0      0.00%      0.06% # attempts to use FU when none available
system.switch_cpus.iq.fu_full::SimdMisc             0      0.00%      0.06% # attempts to use FU when none available
system.switch_cpus.iq.fu_full::SimdMult             0      0.00%      0.06% # attempts to use FU when none available
system.switch_cpus.iq.fu_full::SimdMultAcc            0      0.00%      0.06% # attempts to use FU when none available
system.switch_cpus.iq.fu_full::SimdShift            0      0.00%      0.06% # attempts to use FU when none available
system.switch_cpus.iq.fu_full::SimdShiftAcc            0      0.00%      0.06% # attempts to use FU when none available
system.switch_cpus.iq.fu_full::SimdDiv              0      0.00%      0.06% # attempts to use FU when none available
system.switch_cpus.iq.fu_full::SimdSqrt             0      0.00%      0.06% # attempts to use FU when none available
system.switch_cpus.iq.fu_full::SimdFloatAdd       123745     11.85%     11.91% # attempts to use FU when none available
system.switch_cpus.iq.fu_full::SimdFloatAlu            0      0.00%     11.91% # attempts to use FU when none available
system.switch_cpus.iq.fu_full::SimdFloatCmp            0      0.00%     11.91% # attempts to use FU when none available
system.switch_cpus.iq.fu_full::SimdFloatCvt            0      0.00%     11.91% # attempts to use FU when none available
system.switch_cpus.iq.fu_full::SimdFloatDiv            0      0.00%     11.91% # attempts to use FU when none available
system.switch_cpus.iq.fu_full::SimdFloatMisc            0      0.00%     11.91% # attempts to use FU when none available
system.switch_cpus.iq.fu_full::SimdFloatMult       265511     25.42%     37.33% # attempts to use FU when none available
system.switch_cpus.iq.fu_full::SimdFloatMultAcc            0      0.00%     37.33% # attempts to use FU when none available
system.switch_cpus.iq.fu_full::SimdFloatSqrt            0      0.00%     37.33% # attempts to use FU when none available
system.switch_cpus.iq.fu_full::SimdReduceAdd            0      0.00%     37.33% # attempts to use FU when none available
system.switch_cpus.iq.fu_full::SimdReduceAlu            0      0.00%     37.33% # attempts to use FU when none available
system.switch_cpus.iq.fu_full::SimdReduceCmp            0      0.00%     37.33% # attempts to use FU when none available
system.switch_cpus.iq.fu_full::SimdFloatReduceAdd            0      0.00%     37.33% # attempts to use FU when none available
system.switch_cpus.iq.fu_full::SimdFloatReduceCmp            0      0.00%     37.33% # attempts to use FU when none available
system.switch_cpus.iq.fu_full::SimdAes              0      0.00%     37.33% # attempts to use FU when none available
system.switch_cpus.iq.fu_full::SimdAesMix            0      0.00%     37.33% # attempts to use FU when none available
system.switch_cpus.iq.fu_full::SimdSha1Hash            0      0.00%     37.33% # attempts to use FU when none available
system.switch_cpus.iq.fu_full::SimdSha1Hash2            0      0.00%     37.33% # attempts to use FU when none available
system.switch_cpus.iq.fu_full::SimdSha256Hash            0      0.00%     37.33% # attempts to use FU when none available
system.switch_cpus.iq.fu_full::SimdSha256Hash2            0      0.00%     37.33% # attempts to use FU when none available
system.switch_cpus.iq.fu_full::SimdShaSigma2            0      0.00%     37.33% # attempts to use FU when none available
system.switch_cpus.iq.fu_full::SimdShaSigma3            0      0.00%     37.33% # attempts to use FU when none available
system.switch_cpus.iq.fu_full::SimdPredAlu            0      0.00%     37.33% # attempts to use FU when none available
system.switch_cpus.iq.fu_full::MemRead          89248      8.54%     45.87% # attempts to use FU when none available
system.switch_cpus.iq.fu_full::MemWrite         11498      1.10%     46.97% # attempts to use FU when none available
system.switch_cpus.iq.fu_full::FloatMemRead       497660     47.65%     94.62% # attempts to use FU when none available
system.switch_cpus.iq.fu_full::FloatMemWrite        56209      5.38%    100.00% # attempts to use FU when none available
system.switch_cpus.iq.fu_full::IprAccess            0      0.00%    100.00% # attempts to use FU when none available
system.switch_cpus.iq.fu_full::InstPrefetch            0      0.00%    100.00% # attempts to use FU when none available
system.switch_cpus.iq.int_alu_accesses        1625053                       # Number of integer alu accesses
system.switch_cpus.iq.int_inst_queue_reads     17960076                       # Number of integer instruction queue reads
system.switch_cpus.iq.int_inst_queue_wakeup_accesses      1476021                       # Number of integer instruction queue wakeup accesses
system.switch_cpus.iq.int_inst_queue_writes      1936809                       # Number of integer instruction queue writes
system.switch_cpus.iq.iqInstsAdded           23038652                       # Number of instructions added to the IQ (excludes non-spec)
system.switch_cpus.iq.iqInstsIssued          23137395                       # Number of instructions issued
system.switch_cpus.iq.iqNonSpecInstsAdded         3859                       # Number of non-speculative instructions added to the IQ
system.switch_cpus.iq.iqSquashedInstsExamined       565222                       # Number of squashed instructions iterated over during squash; mainly for profiling
system.switch_cpus.iq.iqSquashedInstsIssued          503                       # Number of squashed instructions issued
system.switch_cpus.iq.iqSquashedNonSpecRemoved         3539                       # Number of squashed non-spec instructions that were removed
system.switch_cpus.iq.iqSquashedOperandsExamined       277500                       # Number of squashed operands that are examined and possibly removed from graph
system.switch_cpus.iq.issued_per_cycle::samples     14728954                       # Number of insts issued each cycle
system.switch_cpus.iq.issued_per_cycle::mean     1.570878                       # Number of insts issued each cycle
system.switch_cpus.iq.issued_per_cycle::stdev     2.449406                       # Number of insts issued each cycle
system.switch_cpus.iq.issued_per_cycle::underflows            0      0.00%      0.00% # Number of insts issued each cycle
system.switch_cpus.iq.issued_per_cycle::0      9332019     63.36%     63.36% # Number of insts issued each cycle
system.switch_cpus.iq.issued_per_cycle::1       699953      4.75%     68.11% # Number of insts issued each cycle
system.switch_cpus.iq.issued_per_cycle::2       712413      4.84%     72.95% # Number of insts issued each cycle
system.switch_cpus.iq.issued_per_cycle::3       630569      4.28%     77.23% # Number of insts issued each cycle
system.switch_cpus.iq.issued_per_cycle::4       895527      6.08%     83.31% # Number of insts issued each cycle
system.switch_cpus.iq.issued_per_cycle::5       699303      4.75%     88.06% # Number of insts issued each cycle
system.switch_cpus.iq.issued_per_cycle::6       778605      5.29%     93.34% # Number of insts issued each cycle
system.switch_cpus.iq.issued_per_cycle::7       473864      3.22%     96.56% # Number of insts issued each cycle
system.switch_cpus.iq.issued_per_cycle::8       506701      3.44%    100.00% # Number of insts issued each cycle
system.switch_cpus.iq.issued_per_cycle::overflows            0      0.00%    100.00% # Number of insts issued each cycle
system.switch_cpus.iq.issued_per_cycle::min_value            0                       # Number of insts issued each cycle
system.switch_cpus.iq.issued_per_cycle::max_value            8                       # Number of insts issued each cycle
system.switch_cpus.iq.issued_per_cycle::total     14728954                       # Number of insts issued each cycle
system.switch_cpus.iq.rate                   1.567528                       # Inst issue rate
system.switch_cpus.iq.vec_alu_accesses              0                       # Number of vector alu accesses
system.switch_cpus.iq.vec_inst_queue_reads            0                       # Number of vector instruction queue reads
system.switch_cpus.iq.vec_inst_queue_wakeup_accesses            0                       # Number of vector instruction queue wakeup accesses
system.switch_cpus.iq.vec_inst_queue_writes            0                       # Number of vector instruction queue writes
system.switch_cpus.itb.rdAccesses                   0                       # TLB accesses on read requests
system.switch_cpus.itb.rdMisses                     0                       # TLB misses on read requests
system.switch_cpus.itb.wrAccesses             1084112                       # TLB accesses on write requests
system.switch_cpus.itb.wrMisses                    10                       # TLB misses on write requests
system.switch_cpus.memDep0.conflictingLoads        22791                       # Number of conflicting loads.
system.switch_cpus.memDep0.conflictingStores        95615                       # Number of conflicting stores.
system.switch_cpus.memDep0.insertedLoads      7789733                       # Number of loads inserted to the mem dependence unit.
system.switch_cpus.memDep0.insertedStores      2419013                       # Number of stores inserted to the mem dependence unit.
system.switch_cpus.misc_regfile_reads        10622962                       # number of misc regfile reads
system.switch_cpus.misc_regfile_writes              1                       # number of misc regfile writes
system.switch_cpus.numCycles                 14760431                       # number of cpu cycles simulated
system.switch_cpus.numWorkItemsCompleted            0                       # number of work items this cpu completed
system.switch_cpus.numWorkItemsStarted              0                       # number of work items this cpu started
system.switch_cpus.rename.BlockCycles         3976413                       # Number of cycles rename is blocking
system.switch_cpus.rename.CommittedMaps      20390800                       # Number of HB maps that are committed
system.switch_cpus.rename.IQFullEvents         165281                       # Number of times rename has blocked due to IQ full
system.switch_cpus.rename.IdleCycles          1024378                       # Number of cycles rename is idle
system.switch_cpus.rename.LQFullEvents        2310378                       # Number of times rename has blocked due to LQ full
system.switch_cpus.rename.ROBFullEvents         13206                       # Number of times rename has blocked due to ROB full
system.switch_cpus.rename.RenameLookups      67938539                       # Number of register rename lookups that rename has made
system.switch_cpus.rename.RenamedInsts       23064841                       # Number of instructions processed by rename
system.switch_cpus.rename.RenamedOperands     20906547                       # Number of destination operands rename has renamed
system.switch_cpus.rename.RunCycles           2806342                       # Number of cycles rename is running
system.switch_cpus.rename.SQFullEvents        4380588                       # Number of times rename has blocked due to SQ full
system.switch_cpus.rename.SquashCycles           6092                       # Number of cycles rename is squashing
system.switch_cpus.rename.UnblockCycles       6915609                       # Number of cycles rename is unblocking
system.switch_cpus.rename.UndoneMaps           515667                       # Number of HB maps that are undone due to squashing
system.switch_cpus.rename.fp_rename_lookups     36040495                       # Number of floating rename lookups
system.switch_cpus.rename.int_rename_lookups     21168546                       # Number of integer rename lookups
system.switch_cpus.rename.serializeStallCycles            0                       # count of cycles rename stalled for serializing inst
system.switch_cpus.rename.serializingInsts            0                       # count of serializing insts renamed
system.switch_cpus.rename.skidInsts           3844346                       # count of insts added to the skid buffer
system.switch_cpus.rename.tempSerializingInsts            0                       # count of temporary serializing insts renamed
system.switch_cpus.rob.rob_reads             35991851                       # The number of ROB reads
system.switch_cpus.rob.rob_writes            45954470                       # The number of ROB writes
system.switch_cpus.timesIdled                     339                       # Number of times that the entire CPU went into an idle state and unscheduled itself
system.tol2bus.snoop_filter.hit_multi_requests            0                       # Number of requests hitting in the snoop filter with multiple (>1) holders of the requested data.
system.tol2bus.snoop_filter.hit_multi_snoops            0                       # Number of snoops hitting in the snoop filter with multiple (>1) holders of the requested data.
system.tol2bus.snoop_filter.hit_single_requests       113430                       # Number of requests hitting in the snoop filter with a single holder of the requested data.
system.tol2bus.snoop_filter.hit_single_snoops          996                       # Number of snoops hitting in the snoop filter with a single holder of the requested data.
system.tol2bus.snoop_filter.tot_requests       228165                       # Total number of requests made to the snoop filter.
system.tol2bus.snoop_filter.tot_snoops            996                       # Total number of snoops made to the snoop filter.
system.membus.pwrStateResidencyTicks::UNDEFINED 572574693479500                       # Cumulative time (in ticks) in various power states
system.membus.trans_dist::ReadResp              60193                       # Transaction distribution
system.membus.trans_dist::WritebackDirty        26341                       # Transaction distribution
system.membus.trans_dist::CleanEvict            49122                       # Transaction distribution
system.membus.trans_dist::ReadExReq             23742                       # Transaction distribution
system.membus.trans_dist::ReadExResp            23742                       # Transaction distribution
system.membus.trans_dist::ReadSharedReq         60193                       # Transaction distribution
system.membus.pkt_count_system.l2.mem_side::system.mem_ctrls.port       243333                       # Packet count per connected master and slave (bytes)
system.membus.pkt_count_system.l2.mem_side::total       243333                       # Packet count per connected master and slave (bytes)
system.membus.pkt_count::total                 243333                       # Packet count per connected master and slave (bytes)
system.membus.pkt_size_system.l2.mem_side::system.mem_ctrls.port      7057664                       # Cumulative packet size per connected master and slave (bytes)
system.membus.pkt_size_system.l2.mem_side::total      7057664                       # Cumulative packet size per connected master and slave (bytes)
system.membus.pkt_size::total                 7057664                       # Cumulative packet size per connected master and slave (bytes)
system.membus.snoops                                0                       # Total snoops (count)
system.membus.snoopTraffic                          0                       # Total snoop traffic (bytes)
system.membus.snoop_fanout::samples             83935                       # Request fanout histogram
system.membus.snoop_fanout::mean                    0                       # Request fanout histogram
system.membus.snoop_fanout::stdev                   0                       # Request fanout histogram
system.membus.snoop_fanout::underflows              0      0.00%      0.00% # Request fanout histogram
system.membus.snoop_fanout::0                   83935    100.00%    100.00% # Request fanout histogram
system.membus.snoop_fanout::1                       0      0.00%    100.00% # Request fanout histogram
system.membus.snoop_fanout::overflows               0      0.00%    100.00% # Request fanout histogram
system.membus.snoop_fanout::min_value               0                       # Request fanout histogram
system.membus.snoop_fanout::max_value               0                       # Request fanout histogram
system.membus.snoop_fanout::total               83935                       # Request fanout histogram
system.membus.reqLayer2.occupancy           279497500                       # Layer occupancy (ticks)
system.membus.reqLayer2.utilization               3.8                       # Layer utilization (%)
system.membus.respLayer1.occupancy          465267250                       # Layer occupancy (ticks)
system.membus.respLayer1.utilization              6.3                       # Layer utilization (%)
system.switch_cpus.pwrStateResidencyTicks::OFF   7380225750                       # Cumulative time (in ticks) in various power states
system.switch_cpus.dtb.walker.pwrStateResidencyTicks::UNDEFINED 572574693479500                       # Cumulative time (in ticks) in various power states
system.switch_cpus.itb.walker.pwrStateResidencyTicks::UNDEFINED 572574693479500                       # Cumulative time (in ticks) in various power states
system.tol2bus.pwrStateResidencyTicks::UNDEFINED 572574693479500                       # Cumulative time (in ticks) in various power states
system.tol2bus.trans_dist::ReadResp             83071                       # Transaction distribution
system.tol2bus.trans_dist::WritebackDirty        69653                       # Transaction distribution
system.tol2bus.trans_dist::WritebackClean          116                       # Transaction distribution
system.tol2bus.trans_dist::CleanEvict          119951                       # Transaction distribution
system.tol2bus.trans_dist::ReadExReq            31664                       # Transaction distribution
system.tol2bus.trans_dist::ReadExResp           31664                       # Transaction distribution
system.tol2bus.trans_dist::ReadCleanReq           397                       # Transaction distribution
system.tol2bus.trans_dist::ReadSharedReq        82674                       # Transaction distribution
system.tol2bus.pkt_count_system.cpu.icache.mem_side::system.l2.cpu_side          910                       # Packet count per connected master and slave (bytes)
system.tol2bus.pkt_count_system.cpu.dcache.mem_side::system.l2.cpu_side       341990                       # Packet count per connected master and slave (bytes)
system.tol2bus.pkt_count::total                342900                       # Packet count per connected master and slave (bytes)
system.tol2bus.pkt_size_system.cpu.icache.mem_side::system.l2.cpu_side        32832                       # Cumulative packet size per connected master and slave (bytes)
system.tol2bus.pkt_size_system.cpu.dcache.mem_side::system.l2.cpu_side     10089600                       # Cumulative packet size per connected master and slave (bytes)
system.tol2bus.pkt_size::total               10122432                       # Cumulative packet size per connected master and slave (bytes)
system.tol2bus.snoops                           76290                       # Total snoops (count)
system.tol2bus.snoopTraffic                   1685824                       # Total snoop traffic (bytes)
system.tol2bus.snoop_fanout::samples           191025                       # Request fanout histogram
system.tol2bus.snoop_fanout::mean            0.005214                       # Request fanout histogram
system.tol2bus.snoop_fanout::stdev           0.072020                       # Request fanout histogram
system.tol2bus.snoop_fanout::underflows             0      0.00%      0.00% # Request fanout histogram
system.tol2bus.snoop_fanout::0                 190029     99.48%     99.48% # Request fanout histogram
system.tol2bus.snoop_fanout::1                    996      0.52%    100.00% # Request fanout histogram
system.tol2bus.snoop_fanout::2                      0      0.00%    100.00% # Request fanout histogram
system.tol2bus.snoop_fanout::3                      0      0.00%    100.00% # Request fanout histogram
system.tol2bus.snoop_fanout::4                      0      0.00%    100.00% # Request fanout histogram
system.tol2bus.snoop_fanout::overflows              0      0.00%    100.00% # Request fanout histogram
system.tol2bus.snoop_fanout::min_value              0                       # Request fanout histogram
system.tol2bus.snoop_fanout::max_value              1                       # Request fanout histogram
system.tol2bus.snoop_fanout::total             191025                       # Request fanout histogram
system.tol2bus.reqLayer0.occupancy          157508000                       # Layer occupancy (ticks)
system.tol2bus.reqLayer0.utilization              2.1                       # Layer utilization (%)
system.tol2bus.respLayer1.occupancy         171502500                       # Layer occupancy (ticks)
system.tol2bus.respLayer1.utilization             2.3                       # Layer utilization (%)
system.tol2bus.respLayer0.occupancy            592500                       # Layer occupancy (ticks)
system.tol2bus.respLayer0.utilization             0.0                       # Layer utilization (%)
system.voltage_domain.voltage                       1                       # Voltage in Volts
system.clk_domain.clock                          1000                       # Clock period in ticks
system.l2.pwrStateResidencyTicks::UNDEFINED 572574693479500                       # Cumulative time (in ticks) in various power states
system.l2.demand_hits::.switch_cpus.inst           68                       # number of demand (read+write) hits
system.l2.demand_hits::.switch_cpus.data        30732                       # number of demand (read+write) hits
system.l2.demand_hits::total                    30800                       # number of demand (read+write) hits
system.l2.overall_hits::.switch_cpus.inst           68                       # number of overall hits
system.l2.overall_hits::.switch_cpus.data        30732                       # number of overall hits
system.l2.overall_hits::total                   30800                       # number of overall hits
system.l2.demand_misses::.cpu.inst                  2                       # number of demand (read+write) misses
system.l2.demand_misses::.cpu.data                  3                       # number of demand (read+write) misses
system.l2.demand_misses::.switch_cpus.inst          327                       # number of demand (read+write) misses
system.l2.demand_misses::.switch_cpus.data        83603                       # number of demand (read+write) misses
system.l2.demand_misses::total                  83935                       # number of demand (read+write) misses
system.l2.overall_misses::.cpu.inst                 2                       # number of overall misses
system.l2.overall_misses::.cpu.data                 3                       # number of overall misses
system.l2.overall_misses::.switch_cpus.inst          327                       # number of overall misses
system.l2.overall_misses::.switch_cpus.data        83603                       # number of overall misses
system.l2.overall_misses::total                 83935                       # number of overall misses
system.l2.demand_miss_latency::.switch_cpus.inst     25361000                       # number of demand (read+write) miss cycles
system.l2.demand_miss_latency::.switch_cpus.data   8556191500                       # number of demand (read+write) miss cycles
system.l2.demand_miss_latency::total       8581552500                       # number of demand (read+write) miss cycles
system.l2.overall_miss_latency::.switch_cpus.inst     25361000                       # number of overall miss cycles
system.l2.overall_miss_latency::.switch_cpus.data   8556191500                       # number of overall miss cycles
system.l2.overall_miss_latency::total      8581552500                       # number of overall miss cycles
system.l2.demand_accesses::.cpu.inst                2                       # number of demand (read+write) accesses
system.l2.demand_accesses::.cpu.data                3                       # number of demand (read+write) accesses
system.l2.demand_accesses::.switch_cpus.inst          395                       # number of demand (read+write) accesses
system.l2.demand_accesses::.switch_cpus.data       114335                       # number of demand (read+write) accesses
system.l2.demand_accesses::total               114735                       # number of demand (read+write) accesses
system.l2.overall_accesses::.cpu.inst               2                       # number of overall (read+write) accesses
system.l2.overall_accesses::.cpu.data               3                       # number of overall (read+write) accesses
system.l2.overall_accesses::.switch_cpus.inst          395                       # number of overall (read+write) accesses
system.l2.overall_accesses::.switch_cpus.data       114335                       # number of overall (read+write) accesses
system.l2.overall_accesses::total              114735                       # number of overall (read+write) accesses
system.l2.demand_miss_rate::.cpu.inst               1                       # miss rate for demand accesses
system.l2.demand_miss_rate::.cpu.data               1                       # miss rate for demand accesses
system.l2.demand_miss_rate::.switch_cpus.inst     0.827848                       # miss rate for demand accesses
system.l2.demand_miss_rate::.switch_cpus.data     0.731211                       # miss rate for demand accesses
system.l2.demand_miss_rate::total            0.731555                       # miss rate for demand accesses
system.l2.overall_miss_rate::.cpu.inst              1                       # miss rate for overall accesses
system.l2.overall_miss_rate::.cpu.data              1                       # miss rate for overall accesses
system.l2.overall_miss_rate::.switch_cpus.inst     0.827848                       # miss rate for overall accesses
system.l2.overall_miss_rate::.switch_cpus.data     0.731211                       # miss rate for overall accesses
system.l2.overall_miss_rate::total           0.731555                       # miss rate for overall accesses
system.l2.demand_avg_miss_latency::.switch_cpus.inst 77556.574924                       # average overall miss latency
system.l2.demand_avg_miss_latency::.switch_cpus.data 102343.115678                       # average overall miss latency
system.l2.demand_avg_miss_latency::total 102240.453923                       # average overall miss latency
system.l2.overall_avg_miss_latency::.switch_cpus.inst 77556.574924                       # average overall miss latency
system.l2.overall_avg_miss_latency::.switch_cpus.data 102343.115678                       # average overall miss latency
system.l2.overall_avg_miss_latency::total 102240.453923                       # average overall miss latency
system.l2.blocked_cycles::no_mshrs                  0                       # number of cycles access was blocked
system.l2.blocked_cycles::no_targets                0                       # number of cycles access was blocked
system.l2.blocked::no_mshrs                         0                       # number of cycles access was blocked
system.l2.blocked::no_targets                       0                       # number of cycles access was blocked
system.l2.avg_blocked_cycles::no_mshrs            nan                       # average number of cycles each access was blocked
system.l2.avg_blocked_cycles::no_targets          nan                       # average number of cycles each access was blocked
system.l2.writebacks::.writebacks               26341                       # number of writebacks
system.l2.writebacks::total                     26341                       # number of writebacks
system.l2.demand_mshr_misses::.switch_cpus.inst          327                       # number of demand (read+write) MSHR misses
system.l2.demand_mshr_misses::.switch_cpus.data        83603                       # number of demand (read+write) MSHR misses
system.l2.demand_mshr_misses::total             83930                       # number of demand (read+write) MSHR misses
system.l2.overall_mshr_misses::.switch_cpus.inst          327                       # number of overall MSHR misses
system.l2.overall_mshr_misses::.switch_cpus.data        83603                       # number of overall MSHR misses
system.l2.overall_mshr_misses::total            83930                       # number of overall MSHR misses
system.l2.demand_mshr_miss_latency::.switch_cpus.inst     22091000                       # number of demand (read+write) MSHR miss cycles
system.l2.demand_mshr_miss_latency::.switch_cpus.data   7720161500                       # number of demand (read+write) MSHR miss cycles
system.l2.demand_mshr_miss_latency::total   7742252500                       # number of demand (read+write) MSHR miss cycles
system.l2.overall_mshr_miss_latency::.switch_cpus.inst     22091000                       # number of overall MSHR miss cycles
system.l2.overall_mshr_miss_latency::.switch_cpus.data   7720161500                       # number of overall MSHR miss cycles
system.l2.overall_mshr_miss_latency::total   7742252500                       # number of overall MSHR miss cycles
system.l2.demand_mshr_miss_rate::.switch_cpus.inst     0.827848                       # mshr miss rate for demand accesses
system.l2.demand_mshr_miss_rate::.switch_cpus.data     0.731211                       # mshr miss rate for demand accesses
system.l2.demand_mshr_miss_rate::total       0.731512                       # mshr miss rate for demand accesses
system.l2.overall_mshr_miss_rate::.switch_cpus.inst     0.827848                       # mshr miss rate for overall accesses
system.l2.overall_mshr_miss_rate::.switch_cpus.data     0.731211                       # mshr miss rate for overall accesses
system.l2.overall_mshr_miss_rate::total      0.731512                       # mshr miss rate for overall accesses
system.l2.demand_avg_mshr_miss_latency::.switch_cpus.inst 67556.574924                       # average overall mshr miss latency
system.l2.demand_avg_mshr_miss_latency::.switch_cpus.data 92343.115678                       # average overall mshr miss latency
system.l2.demand_avg_mshr_miss_latency::total 92246.544740                       # average overall mshr miss latency
system.l2.overall_avg_mshr_miss_latency::.switch_cpus.inst 67556.574924                       # average overall mshr miss latency
system.l2.overall_avg_mshr_miss_latency::.switch_cpus.data 92343.115678                       # average overall mshr miss latency
system.l2.overall_avg_mshr_miss_latency::total 92246.544740                       # average overall mshr miss latency
system.l2.replacements                          76290                       # number of replacements
system.l2.WritebackDirty_hits::.writebacks        43312                       # number of WritebackDirty hits
system.l2.WritebackDirty_hits::total            43312                       # number of WritebackDirty hits
system.l2.WritebackDirty_accesses::.writebacks        43312                       # number of WritebackDirty accesses(hits+misses)
system.l2.WritebackDirty_accesses::total        43312                       # number of WritebackDirty accesses(hits+misses)
system.l2.WritebackClean_hits::.writebacks          116                       # number of WritebackClean hits
system.l2.WritebackClean_hits::total              116                       # number of WritebackClean hits
system.l2.WritebackClean_accesses::.writebacks          116                       # number of WritebackClean accesses(hits+misses)
system.l2.WritebackClean_accesses::total          116                       # number of WritebackClean accesses(hits+misses)
system.l2.CleanEvict_mshr_misses::.writebacks          169                       # number of CleanEvict MSHR misses
system.l2.CleanEvict_mshr_misses::total           169                       # number of CleanEvict MSHR misses
system.l2.CleanEvict_mshr_miss_rate::.writebacks          inf                       # mshr miss rate for CleanEvict accesses
system.l2.CleanEvict_mshr_miss_rate::total          inf                       # mshr miss rate for CleanEvict accesses
system.l2.ReadExReq_hits::.switch_cpus.data         7922                       # number of ReadExReq hits
system.l2.ReadExReq_hits::total                  7922                       # number of ReadExReq hits
system.l2.ReadExReq_misses::.cpu.data               1                       # number of ReadExReq misses
system.l2.ReadExReq_misses::.switch_cpus.data        23741                       # number of ReadExReq misses
system.l2.ReadExReq_misses::total               23742                       # number of ReadExReq misses
system.l2.ReadExReq_miss_latency::.switch_cpus.data   2342323000                       # number of ReadExReq miss cycles
system.l2.ReadExReq_miss_latency::total    2342323000                       # number of ReadExReq miss cycles
system.l2.ReadExReq_accesses::.cpu.data             1                       # number of ReadExReq accesses(hits+misses)
system.l2.ReadExReq_accesses::.switch_cpus.data        31663                       # number of ReadExReq accesses(hits+misses)
system.l2.ReadExReq_accesses::total             31664                       # number of ReadExReq accesses(hits+misses)
system.l2.ReadExReq_miss_rate::.cpu.data            1                       # miss rate for ReadExReq accesses
system.l2.ReadExReq_miss_rate::.switch_cpus.data     0.749803                       # miss rate for ReadExReq accesses
system.l2.ReadExReq_miss_rate::total         0.749811                       # miss rate for ReadExReq accesses
system.l2.ReadExReq_avg_miss_latency::.switch_cpus.data 98661.513837                       # average ReadExReq miss latency
system.l2.ReadExReq_avg_miss_latency::total 98657.358268                       # average ReadExReq miss latency
system.l2.ReadExReq_mshr_misses::.switch_cpus.data        23741                       # number of ReadExReq MSHR misses
system.l2.ReadExReq_mshr_misses::total          23741                       # number of ReadExReq MSHR misses
system.l2.ReadExReq_mshr_miss_latency::.switch_cpus.data   2104913000                       # number of ReadExReq MSHR miss cycles
system.l2.ReadExReq_mshr_miss_latency::total   2104913000                       # number of ReadExReq MSHR miss cycles
system.l2.ReadExReq_mshr_miss_rate::.switch_cpus.data     0.749803                       # mshr miss rate for ReadExReq accesses
system.l2.ReadExReq_mshr_miss_rate::total     0.749779                       # mshr miss rate for ReadExReq accesses
system.l2.ReadExReq_avg_mshr_miss_latency::.switch_cpus.data 88661.513837                       # average ReadExReq mshr miss latency
system.l2.ReadExReq_avg_mshr_miss_latency::total 88661.513837                       # average ReadExReq mshr miss latency
system.l2.ReadCleanReq_hits::.switch_cpus.inst           68                       # number of ReadCleanReq hits
system.l2.ReadCleanReq_hits::total                 68                       # number of ReadCleanReq hits
system.l2.ReadCleanReq_misses::.cpu.inst            2                       # number of ReadCleanReq misses
system.l2.ReadCleanReq_misses::.switch_cpus.inst          327                       # number of ReadCleanReq misses
system.l2.ReadCleanReq_misses::total              329                       # number of ReadCleanReq misses
system.l2.ReadCleanReq_miss_latency::.switch_cpus.inst     25361000                       # number of ReadCleanReq miss cycles
system.l2.ReadCleanReq_miss_latency::total     25361000                       # number of ReadCleanReq miss cycles
system.l2.ReadCleanReq_accesses::.cpu.inst            2                       # number of ReadCleanReq accesses(hits+misses)
system.l2.ReadCleanReq_accesses::.switch_cpus.inst          395                       # number of ReadCleanReq accesses(hits+misses)
system.l2.ReadCleanReq_accesses::total            397                       # number of ReadCleanReq accesses(hits+misses)
system.l2.ReadCleanReq_miss_rate::.cpu.inst            1                       # miss rate for ReadCleanReq accesses
system.l2.ReadCleanReq_miss_rate::.switch_cpus.inst     0.827848                       # miss rate for ReadCleanReq accesses
system.l2.ReadCleanReq_miss_rate::total      0.828715                       # miss rate for ReadCleanReq accesses
system.l2.ReadCleanReq_avg_miss_latency::.switch_cpus.inst 77556.574924                       # average ReadCleanReq miss latency
system.l2.ReadCleanReq_avg_miss_latency::total 77085.106383                       # average ReadCleanReq miss latency
[...]
system.cpu.dtb_walker_cache.pwrStateResidencyTicks::UNDEFINED 572596818907000                       # Cumulative time (in ticks) in various power states
system.cpu.dtb_walker_cache.blocked_cycles::no_mshrs            0                       # number of cycles access was blocked
system.cpu.dtb_walker_cache.blocked_cycles::no_targets            0                       # number of cycles access was blocked
system.cpu.dtb_walker_cache.blocked::no_mshrs            0                       # number of cycles access was blocked
system.cpu.dtb_walker_cache.blocked::no_targets            0                       # number of cycles access was blocked
system.cpu.dtb_walker_cache.avg_blocked_cycles::no_mshrs          nan                       # average number of cycles each access was blocked
system.cpu.dtb_walker_cache.avg_blocked_cycles::no_targets          nan                       # average number of cycles each access was blocked
system.cpu.dtb_walker_cache.replacements            0                       # number of replacements
system.cpu.dtb_walker_cache.tags.pwrStateResidencyTicks::UNDEFINED 572596818907000                       # Cumulative time (in ticks) in various power states
system.cpu.dtb_walker_cache.tags.tagsinuse            0                       # Cycle average of tags in use
system.cpu.dtb_walker_cache.tags.total_refs            0                       # Total number of references to valid blocks.
system.cpu.dtb_walker_cache.tags.sampled_refs            0                       # Sample count of references to valid blocks.
system.cpu.dtb_walker_cache.tags.avg_refs          nan                       # Average number of references to valid blocks.
system.cpu.dtb_walker_cache.tags.warmup_cycle            0                       # Cycle when the warmup percentage was hit.
system.cpu.dtb_walker_cache.tags.tag_accesses            0                       # Number of tag accesses
system.cpu.dtb_walker_cache.tags.data_accesses            0                       # Number of data accesses
system.cpu.dcache.pwrStateResidencyTicks::UNDEFINED 572596818907000                       # Cumulative time (in ticks) in various power states
system.cpu.dcache.demand_hits::.cpu.data            3                       # number of demand (read+write) hits
system.cpu.dcache.demand_hits::.switch_cpus.data     35440769                       # number of demand (read+write) hits
system.cpu.dcache.demand_hits::total         35440772                       # number of demand (read+write) hits
system.cpu.dcache.overall_hits::.cpu.data            3                       # number of overall hits
system.cpu.dcache.overall_hits::.switch_cpus.data     35496361                       # number of overall hits
system.cpu.dcache.overall_hits::total        35496364                       # number of overall hits
system.cpu.dcache.demand_misses::.cpu.data            3                       # number of demand (read+write) misses
system.cpu.dcache.demand_misses::.switch_cpus.data       863983                       # number of demand (read+write) misses
system.cpu.dcache.demand_misses::total         863986                       # number of demand (read+write) misses
system.cpu.dcache.overall_misses::.cpu.data            3                       # number of overall misses
system.cpu.dcache.overall_misses::.switch_cpus.data       877573                       # number of overall misses
system.cpu.dcache.overall_misses::total        877576                       # number of overall misses
system.cpu.dcache.demand_miss_latency::.switch_cpus.data  58751591758                       # number of demand (read+write) miss cycles
system.cpu.dcache.demand_miss_latency::total  58751591758                       # number of demand (read+write) miss cycles
system.cpu.dcache.overall_miss_latency::.switch_cpus.data  58751591758                       # number of overall miss cycles
system.cpu.dcache.overall_miss_latency::total  58751591758                       # number of overall miss cycles
system.cpu.dcache.demand_accesses::.cpu.data            6                       # number of demand (read+write) accesses
system.cpu.dcache.demand_accesses::.switch_cpus.data     36304752                       # number of demand (read+write) accesses
system.cpu.dcache.demand_accesses::total     36304758                       # number of demand (read+write) accesses
system.cpu.dcache.overall_accesses::.cpu.data            6                       # number of overall (read+write) accesses
system.cpu.dcache.overall_accesses::.switch_cpus.data     36373934                       # number of overall (read+write) accesses
system.cpu.dcache.overall_accesses::total     36373940                       # number of overall (read+write) accesses
system.cpu.dcache.demand_miss_rate::.cpu.data     0.500000                       # miss rate for demand accesses
system.cpu.dcache.demand_miss_rate::.switch_cpus.data     0.023798                       # miss rate for demand accesses
system.cpu.dcache.demand_miss_rate::total     0.023798                       # miss rate for demand accesses
system.cpu.dcache.overall_miss_rate::.cpu.data     0.500000                       # miss rate for overall accesses
system.cpu.dcache.overall_miss_rate::.switch_cpus.data     0.024126                       # miss rate for overall accesses
system.cpu.dcache.overall_miss_rate::total     0.024127                       # miss rate for overall accesses
system.cpu.dcache.demand_avg_miss_latency::.switch_cpus.data 68000.865478                       # average overall miss latency
system.cpu.dcache.demand_avg_miss_latency::total 68000.629360                       # average overall miss latency
system.cpu.dcache.overall_avg_miss_latency::.switch_cpus.data 66947.811473                       # average overall miss latency
system.cpu.dcache.overall_avg_miss_latency::total 66947.582612                       # average overall miss latency
system.cpu.dcache.blocked_cycles::no_mshrs      7276096                       # number of cycles access was blocked
system.cpu.dcache.blocked_cycles::no_targets          308                       # number of cycles access was blocked
system.cpu.dcache.blocked::no_mshrs            117899                       # number of cycles access was blocked
system.cpu.dcache.blocked::no_targets               2                       # number of cycles access was blocked
system.cpu.dcache.avg_blocked_cycles::no_mshrs    61.714654                       # average number of cycles each access was blocked
system.cpu.dcache.avg_blocked_cycles::no_targets          154                       # average number of cycles each access was blocked
system.cpu.dcache.writebacks::.writebacks       163922                       # number of writebacks
system.cpu.dcache.writebacks::total            163922                       # number of writebacks
system.cpu.dcache.demand_mshr_hits::.switch_cpus.data       406690                       # number of demand (read+write) MSHR hits
system.cpu.dcache.demand_mshr_hits::total       406690                       # number of demand (read+write) MSHR hits
system.cpu.dcache.overall_mshr_hits::.switch_cpus.data       406690                       # number of overall MSHR hits
system.cpu.dcache.overall_mshr_hits::total       406690                       # number of overall MSHR hits
system.cpu.dcache.demand_mshr_misses::.switch_cpus.data       457293                       # number of demand (read+write) MSHR misses
system.cpu.dcache.demand_mshr_misses::total       457293                       # number of demand (read+write) MSHR misses
system.cpu.dcache.overall_mshr_misses::.switch_cpus.data       462419                       # number of overall MSHR misses
system.cpu.dcache.overall_mshr_misses::total       462419                       # number of overall MSHR misses
system.cpu.dcache.demand_mshr_miss_latency::.switch_cpus.data  36352326760                       # number of demand (read+write) MSHR miss cycles
system.cpu.dcache.demand_mshr_miss_latency::total  36352326760                       # number of demand (read+write) MSHR miss cycles
system.cpu.dcache.overall_mshr_miss_latency::.switch_cpus.data  36810628760                       # number of overall MSHR miss cycles
system.cpu.dcache.overall_mshr_miss_latency::total  36810628760                       # number of overall MSHR miss cycles
system.cpu.dcache.demand_mshr_miss_rate::.switch_cpus.data     0.012596                       # mshr miss rate for demand accesses
system.cpu.dcache.demand_mshr_miss_rate::total     0.012596                       # mshr miss rate for demand accesses
system.cpu.dcache.overall_mshr_miss_rate::.switch_cpus.data     0.012713                       # mshr miss rate for overall accesses
system.cpu.dcache.overall_mshr_miss_rate::total     0.012713                       # mshr miss rate for overall accesses
system.cpu.dcache.demand_avg_mshr_miss_latency::.switch_cpus.data 79494.605778                       # average overall mshr miss latency
system.cpu.dcache.demand_avg_mshr_miss_latency::total 79494.605778                       # average overall mshr miss latency
system.cpu.dcache.overall_avg_mshr_miss_latency::.switch_cpus.data 79604.490213                       # average overall mshr miss latency
system.cpu.dcache.overall_avg_mshr_miss_latency::total 79604.490213                       # average overall mshr miss latency
system.cpu.dcache.replacements                 461397                       # number of replacements
system.cpu.dcache.ReadReq_hits::.cpu.data            2                       # number of ReadReq hits
system.cpu.dcache.ReadReq_hits::.switch_cpus.data     26982926                       # number of ReadReq hits
system.cpu.dcache.ReadReq_hits::total        26982928                       # number of ReadReq hits
system.cpu.dcache.ReadReq_misses::.cpu.data            2                       # number of ReadReq misses
system.cpu.dcache.ReadReq_misses::.switch_cpus.data       740732                       # number of ReadReq misses
system.cpu.dcache.ReadReq_misses::total        740734                       # number of ReadReq misses
system.cpu.dcache.ReadReq_miss_latency::.switch_cpus.data  48789648500                       # number of ReadReq miss cycles
system.cpu.dcache.ReadReq_miss_latency::total  48789648500                       # number of ReadReq miss cycles
system.cpu.dcache.ReadReq_accesses::.cpu.data            4                       # number of ReadReq accesses(hits+misses)
system.cpu.dcache.ReadReq_accesses::.switch_cpus.data     27723658                       # number of ReadReq accesses(hits+misses)
system.cpu.dcache.ReadReq_accesses::total     27723662                       # number of ReadReq accesses(hits+misses)
system.cpu.dcache.ReadReq_miss_rate::.cpu.data     0.500000                       # miss rate for ReadReq accesses
system.cpu.dcache.ReadReq_miss_rate::.switch_cpus.data     0.026718                       # miss rate for ReadReq accesses
system.cpu.dcache.ReadReq_miss_rate::total     0.026718                       # miss rate for ReadReq accesses
system.cpu.dcache.ReadReq_avg_miss_latency::.switch_cpus.data 65866.802703                       # average ReadReq miss latency
system.cpu.dcache.ReadReq_avg_miss_latency::total 65866.624861                       # average ReadReq miss latency
system.cpu.dcache.ReadReq_mshr_hits::.switch_cpus.data       406587                       # number of ReadReq MSHR hits
system.cpu.dcache.ReadReq_mshr_hits::total       406587                       # number of ReadReq MSHR hits
system.cpu.dcache.ReadReq_mshr_misses::.switch_cpus.data       334145                       # number of ReadReq MSHR misses
system.cpu.dcache.ReadReq_mshr_misses::total       334145                       # number of ReadReq MSHR misses
system.cpu.dcache.ReadReq_mshr_miss_latency::.switch_cpus.data  26515110500                       # number of ReadReq MSHR miss cycles
system.cpu.dcache.ReadReq_mshr_miss_latency::total  26515110500                       # number of ReadReq MSHR miss cycles
system.cpu.dcache.ReadReq_mshr_miss_rate::.switch_cpus.data     0.012053                       # mshr miss rate for ReadReq accesses
system.cpu.dcache.ReadReq_mshr_miss_rate::total     0.012053                       # mshr miss rate for ReadReq accesses
system.cpu.dcache.ReadReq_avg_mshr_miss_latency::.switch_cpus.data 79352.109114                       # average ReadReq mshr miss latency
system.cpu.dcache.ReadReq_avg_mshr_miss_latency::total 79352.109114                       # average ReadReq mshr miss latency
system.cpu.dcache.WriteReq_hits::.cpu.data            1                       # number of WriteReq hits
system.cpu.dcache.WriteReq_hits::.switch_cpus.data      8457843                       # number of WriteReq hits
system.cpu.dcache.WriteReq_hits::total        8457844                       # number of WriteReq hits
system.cpu.dcache.WriteReq_misses::.cpu.data            1                       # number of WriteReq misses
system.cpu.dcache.WriteReq_misses::.switch_cpus.data       123251                       # number of WriteReq misses
system.cpu.dcache.WriteReq_misses::total       123252                       # number of WriteReq misses
system.cpu.dcache.WriteReq_miss_latency::.switch_cpus.data   9961943258                       # number of WriteReq miss cycles
system.cpu.dcache.WriteReq_miss_latency::total   9961943258                       # number of WriteReq miss cycles
system.cpu.dcache.WriteReq_accesses::.cpu.data            2                       # number of WriteReq accesses(hits+misses)
system.cpu.dcache.WriteReq_accesses::.switch_cpus.data      8581094                       # number of WriteReq accesses(hits+misses)
system.cpu.dcache.WriteReq_accesses::total      8581096                       # number of WriteReq accesses(hits+misses)
system.cpu.dcache.WriteReq_miss_rate::.cpu.data     0.500000                       # miss rate for WriteReq accesses
system.cpu.dcache.WriteReq_miss_rate::.switch_cpus.data     0.014363                       # miss rate for WriteReq accesses
system.cpu.dcache.WriteReq_miss_rate::total     0.014363                       # miss rate for WriteReq accesses
system.cpu.dcache.WriteReq_avg_miss_latency::.switch_cpus.data 80826.470033                       # average WriteReq miss latency
system.cpu.dcache.WriteReq_avg_miss_latency::total 80825.814250                       # average WriteReq miss latency
system.cpu.dcache.WriteReq_mshr_hits::.switch_cpus.data          103                       # number of WriteReq MSHR hits
system.cpu.dcache.WriteReq_mshr_hits::total          103                       # number of WriteReq MSHR hits
system.cpu.dcache.WriteReq_mshr_misses::.switch_cpus.data       123148                       # number of WriteReq MSHR misses
system.cpu.dcache.WriteReq_mshr_misses::total       123148                       # number of WriteReq MSHR misses
system.cpu.dcache.WriteReq_mshr_miss_latency::.switch_cpus.data   9837216260                       # number of WriteReq MSHR miss cycles
system.cpu.dcache.WriteReq_mshr_miss_latency::total   9837216260                       # number of WriteReq MSHR miss cycles
system.cpu.dcache.WriteReq_mshr_miss_rate::.switch_cpus.data     0.014351                       # mshr miss rate for WriteReq accesses
system.cpu.dcache.WriteReq_mshr_miss_rate::total     0.014351                       # mshr miss rate for WriteReq accesses
system.cpu.dcache.WriteReq_avg_mshr_miss_latency::.switch_cpus.data 79881.250690                       # average WriteReq mshr miss latency
system.cpu.dcache.WriteReq_avg_mshr_miss_latency::total 79881.250690                       # average WriteReq mshr miss latency
system.cpu.dcache.SoftPFReq_hits::.switch_cpus.data        55592                       # number of SoftPFReq hits
system.cpu.dcache.SoftPFReq_hits::total         55592                       # number of SoftPFReq hits
system.cpu.dcache.SoftPFReq_misses::.switch_cpus.data        13590                       # number of SoftPFReq misses
system.cpu.dcache.SoftPFReq_misses::total        13590                       # number of SoftPFReq misses
system.cpu.dcache.SoftPFReq_accesses::.switch_cpus.data        69182                       # number of SoftPFReq accesses(hits+misses)
system.cpu.dcache.SoftPFReq_accesses::total        69182                       # number of SoftPFReq accesses(hits+misses)
system.cpu.dcache.SoftPFReq_miss_rate::.switch_cpus.data     0.196438                       # miss rate for SoftPFReq accesses
system.cpu.dcache.SoftPFReq_miss_rate::total     0.196438                       # miss rate for SoftPFReq accesses
system.cpu.dcache.SoftPFReq_mshr_misses::.switch_cpus.data         5126                       # number of SoftPFReq MSHR misses
system.cpu.dcache.SoftPFReq_mshr_misses::total         5126                       # number of SoftPFReq MSHR misses
system.cpu.dcache.SoftPFReq_mshr_miss_latency::.switch_cpus.data    458302000                       # number of SoftPFReq MSHR miss cycles
system.cpu.dcache.SoftPFReq_mshr_miss_latency::total    458302000                       # number of SoftPFReq MSHR miss cycles
system.cpu.dcache.SoftPFReq_mshr_miss_rate::.switch_cpus.data     0.074094                       # mshr miss rate for SoftPFReq accesses
system.cpu.dcache.SoftPFReq_mshr_miss_rate::total     0.074094                       # mshr miss rate for SoftPFReq accesses
system.cpu.dcache.SoftPFReq_avg_mshr_miss_latency::.switch_cpus.data 89407.335154                       # average SoftPFReq mshr miss latency
system.cpu.dcache.SoftPFReq_avg_mshr_miss_latency::total 89407.335154                       # average SoftPFReq mshr miss latency
system.cpu.dcache.tags.pwrStateResidencyTicks::UNDEFINED 572596818907000                       # Cumulative time (in ticks) in various power states
system.cpu.dcache.tags.tagsinuse             0.052650                       # Cycle average of tags in use
system.cpu.dcache.tags.total_refs            35958786                       # Total number of references to valid blocks.
system.cpu.dcache.tags.sampled_refs            462421                       # Sample count of references to valid blocks.
system.cpu.dcache.tags.avg_refs             77.762009                       # Average number of references to valid blocks.
system.cpu.dcache.tags.warmup_cycle      572567313256500                       # Cycle when the warmup percentage was hit.
system.cpu.dcache.tags.occ_blocks::.cpu.data     0.000002                       # Average occupied blocks per requestor
system.cpu.dcache.tags.occ_blocks::.switch_cpus.data     0.052649                       # Average occupied blocks per requestor
system.cpu.dcache.tags.occ_percent::.cpu.data     0.000000                       # Average percentage of cache occupancy
system.cpu.dcache.tags.occ_percent::.switch_cpus.data     0.000051                       # Average percentage of cache occupancy
system.cpu.dcache.tags.occ_percent::total     0.000051                       # Average percentage of cache occupancy
system.cpu.dcache.tags.occ_task_id_blocks::1024         1024                       # Occupied blocks per task id
system.cpu.dcache.tags.age_task_id_blocks_1024::0          117                       # Occupied blocks per task id
system.cpu.dcache.tags.age_task_id_blocks_1024::1          537                       # Occupied blocks per task id
system.cpu.dcache.tags.age_task_id_blocks_1024::2          364                       # Occupied blocks per task id
system.cpu.dcache.tags.age_task_id_blocks_1024::3            6                       # Occupied blocks per task id
system.cpu.dcache.tags.occ_task_id_percent::1024            1                       # Percentage of cache occupancy per task id
system.cpu.dcache.tags.tag_accesses          73210301                       # Number of tag accesses
system.cpu.dcache.tags.data_accesses         73210301                       # Number of data accesses

---------- End Simulation Statistics   ----------
