
---------- Begin Simulation Statistics ----------
final_tick                               190175552048500                       # Number of ticks from beginning of simulation (restored from checkpoints and never reset)
host_inst_rate                                  22607                       # Simulator instruction rate (inst/s)
host_mem_usage                                 829080                       # Number of bytes of host memory used
host_op_rate                                    39707                       # Simulator op (including micro ops) rate (op/s)
host_seconds                                   442.35                       # Real time elapsed on the host
host_tick_rate                               56556521                       # Simulator tick rate (ticks/s)
sim_freq                                 1000000000000                       # Frequency of simulated ticks
sim_insts                                    10000010                       # Number of instructions simulated
sim_ops                                      17564243                       # Number of ops (including micro ops) simulated
sim_seconds                                  0.025018                       # Number of seconds simulated
sim_ticks                                 25017779750                       # Number of ticks simulated
system.cpu.Branches                                 4                       # Number of branches fetched
system.cpu.committedInsts                          10                       # Number of instructions committed
system.cpu.committedOps                            20                       # Number of ops (including micro ops) committed
system.cpu.dtb.rdAccesses                           2                       # TLB accesses on read requests
system.cpu.dtb.rdMisses                             1                       # TLB misses on read requests
system.cpu.dtb.wrAccesses                           0                       # TLB accesses on write requests
system.cpu.dtb.wrMisses                             0                       # TLB misses on write requests
system.cpu.idle_fraction                            0                       # Percentage of idle cycles
system.cpu.itb.rdAccesses                           0                       # TLB accesses on read requests
system.cpu.itb.rdMisses                             0                       # TLB misses on read requests
system.cpu.itb.wrAccesses                          12                       # TLB accesses on write requests
system.cpu.itb.wrMisses                             0                       # TLB misses on write requests
system.cpu.not_idle_fraction                        1                       # Percentage of non-idle cycles
system.cpu.numCycles                               22                       # number of cpu cycles simulated
system.cpu.numWorkItemsCompleted                    0                       # number of work items this cpu completed
system.cpu.numWorkItemsStarted                      0                       # number of work items this cpu started
system.cpu.num_busy_cycles                         22                       # Number of busy cycles
system.cpu.num_cc_register_reads                   21                       # number of times the CC registers were read
system.cpu.num_cc_register_writes                  10                       # number of times the CC registers were written
system.cpu.num_conditional_control_insts            4                       # number of instructions that are conditional controls
system.cpu.num_fp_alu_accesses                      0                       # Number of float alu accesses
system.cpu.num_fp_insts                             0                       # number of float instructions
system.cpu.num_fp_register_reads                    0                       # number of times the floating registers were read
system.cpu.num_fp_register_writes                   0                       # number of times the floating registers were written
system.cpu.num_func_calls                           0                       # number of times a function call or return occured
system.cpu.num_idle_cycles                          0                       # Number of idle cycles
system.cpu.num_int_alu_accesses                    20                       # Number of integer alu accesses
system.cpu.num_int_insts                           20                       # number of integer instructions
system.cpu.num_int_register_reads                  32                       # number of times the integer registers were read
system.cpu.num_int_register_writes                 16                       # number of times the integer registers were written
system.cpu.num_load_insts                           2                       # Number of load instructions
system.cpu.num_mem_refs                             2                       # number of memory refs
system.cpu.num_store_insts                          0                       # Number of store instructions
system.cpu.num_vec_alu_accesses                     0                       # Number of vector alu accesses
system.cpu.num_vec_insts                            0                       # number of vector instructions
system.cpu.num_vec_register_reads                   0                       # number of times the vector registers were read
system.cpu.num_vec_register_writes                  0                       # number of times the vector registers were written
system.cpu.op_class::No_OpClass                     0      0.00%      0.00% # Class of executed instruction
system.cpu.op_class::IntAlu                        18     90.00%     90.00% # Class of executed instruction
system.cpu.op_class::IntMult                        0      0.00%     90.00% # Class of executed instruction
system.cpu.op_class::IntDiv                         0      0.00%     90.00% # Class of executed instruction
system.cpu.op_class::FloatAdd                       0      0.00%     90.00% # Class of executed instruction
system.cpu.op_class::FloatCmp                       0      0.00%     90.00% # Class of executed instruction
system.cpu.op_class::FloatCvt                       0      0.00%     90.00% # Class of executed instruction
system.cpu.op_class::FloatMult                      0      0.00%     90.00% # Class of executed instruction
system.cpu.op_class::FloatMultAcc                   0      0.00%     90.00% # Class of executed instruction
system.cpu.op_class::FloatDiv                       0      0.00%     90.00% # Class of executed instruction
system.cpu.op_class::FloatMisc                      0      0.00%     90.00% # Class of executed instruction
system.cpu.op_class::FloatSqrt                      0      0.00%     90.00% # Class of executed instruction
system.cpu.op_class::SimdAdd                        0      0.00%     90.00% # Class of executed instruction
system.cpu.op_class::SimdAddAcc                     0      0.00%     90.00% # Class of executed instruction
system.cpu.op_class::SimdAlu                        0      0.00%     90.00% # Class of executed instruction
system.cpu.op_class::SimdCmp                        0      0.00%     90.00% # Class of executed instruction
system.cpu.op_class::SimdCvt                        0      0.00%     90.00% # Class of executed instruction
system.cpu.op_class::SimdMisc                       0      0.00%     90.00% # Class of executed instruction
system.cpu.op_class::SimdMult                       0      0.00%     90.00% # Class of executed instruction
system.cpu.op_class::SimdMultAcc                    0      0.00%     90.00% # Class of executed instruction
system.cpu.op_class::SimdShift                      0      0.00%     90.00% # Class of executed instruction
system.cpu.op_class::SimdShiftAcc                   0      0.00%     90.00% # Class of executed instruction
system.cpu.op_class::SimdDiv                        0      0.00%     90.00% # Class of executed instruction
system.cpu.op_class::SimdSqrt                       0      0.00%     90.00% # Class of executed instruction
system.cpu.op_class::SimdFloatAdd                   0      0.00%     90.00% # Class of executed instruction
system.cpu.op_class::SimdFloatAlu                   0      0.00%     90.00% # Class of executed instruction
system.cpu.op_class::SimdFloatCmp                   0      0.00%     90.00% # Class of executed instruction
system.cpu.op_class::SimdFloatCvt                   0      0.00%     90.00% # Class of executed instruction
system.cpu.op_class::SimdFloatDiv                   0      0.00%     90.00% # Class of executed instruction
system.cpu.op_class::SimdFloatMisc                  0      0.00%     90.00% # Class of executed instruction
system.cpu.op_class::SimdFloatMult                  0      0.00%     90.00% # Class of executed instruction
system.cpu.op_class::SimdFloatMultAcc               0      0.00%     90.00% # Class of executed instruction
system.cpu.op_class::SimdFloatSqrt                  0      0.00%     90.00% # Class of executed instruction
system.cpu.op_class::SimdReduceAdd                  0      0.00%     90.00% # Class of executed instruction
system.cpu.op_class::SimdReduceAlu                  0      0.00%     90.00% # Class of executed instruction
system.cpu.op_class::SimdReduceCmp                  0      0.00%     90.00% # Class of executed instruction
system.cpu.op_class::SimdFloatReduceAdd             0      0.00%     90.00% # Class of executed instruction
system.cpu.op_class::SimdFloatReduceCmp             0      0.00%     90.00% # Class of executed instruction
system.cpu.op_class::SimdAes                        0      0.00%     90.00% # Class of executed instruction
system.cpu.op_class::SimdAesMix                     0      0.00%     90.00% # Class of executed instruction
system.cpu.op_class::SimdSha1Hash                   0      0.00%     90.00% # Class of executed instruction
system.cpu.op_class::SimdSha1Hash2                  0      0.00%     90.00% # Class of executed instruction
system.cpu.op_class::SimdSha256Hash                 0      0.00%     90.00% # Class of executed instruction
system.cpu.op_class::SimdSha256Hash2                0      0.00%     90.00% # Class of executed instruction
system.cpu.op_class::SimdShaSigma2                  0      0.00%     90.00% # Class of executed instruction
system.cpu.op_class::SimdShaSigma3                  0      0.00%     90.00% # Class of executed instruction
system.cpu.op_class::SimdPredAlu                    0      0.00%     90.00% # Class of executed instruction
system.cpu.op_class::MemRead                        2     10.00%    100.00% # Class of executed instruction
system.cpu.op_class::MemWrite                       0      0.00%    100.00% # Class of executed instruction
system.cpu.op_class::FloatMemRead                   0      0.00%    100.00% # Class of executed instruction
system.cpu.op_class::FloatMemWrite                  0      0.00%    100.00% # Class of executed instruction
system.cpu.op_class::IprAccess                      0      0.00%    100.00% # Class of executed instruction
system.cpu.op_class::InstPrefetch                   0      0.00%    100.00% # Class of executed instruction
system.cpu.op_class::total                         20                       # Class of executed instruction
system.cpu.workload.numSyscalls                     0                       # Number of system calls
system.membus.snoop_filter.hit_multi_requests            0                       # Number of requests hitting in the snoop filter with multiple (>1) holders of the requested data.
system.membus.snoop_filter.hit_multi_snoops            0                       # Number of snoops hitting in the snoop filter with multiple (>1) holders of the requested data.
system.membus.snoop_filter.hit_single_requests       688798                       # Number of requests hitting in the snoop filter with a single holder of the requested data.
system.membus.snoop_filter.hit_single_snoops            0                       # Number of snoops hitting in the snoop filter with a single holder of the requested data.
system.membus.snoop_filter.tot_requests       1385903                       # Total number of requests made to the snoop filter.
system.membus.snoop_filter.tot_snoops               0                       # Total number of snoops made to the snoop filter.
system.switch_cpus.branchPred.BTBCorrect            0                       # Number of correct BTB predictions (this stat may not work properly.
system.switch_cpus.branchPred.BTBHitPct      0.000000                       # BTB Hit Percentage
system.switch_cpus.branchPred.BTBHits               0                       # Number of BTB hits
system.switch_cpus.branchPred.BTBLookups      3024946                       # Number of BTB lookups
system.switch_cpus.branchPred.RASInCorrect            1                       # Number of incorrect RAS predictions.
system.switch_cpus.branchPred.condIncorrect       170920                       # Number of conditional branches incorrect
system.switch_cpus.branchPred.condPredicted      4161798                       # Number of conditional branches predicted
system.switch_cpus.branchPred.indirectHits      1875941                       # Number of indirect target hits.
system.switch_cpus.branchPred.indirectLookups      3024946                       # Number of indirect predictor lookups.
system.switch_cpus.branchPred.indirectMisses      1149005                       # Number of indirect misses.
system.switch_cpus.branchPred.lookups         4220966                       # Number of BP lookups
system.switch_cpus.branchPred.usedRAS           31749                       # Number of times the RAS was used to get a target.
system.switch_cpus.branchPredindirectMispredicted       114282                       # Number of mispredicted indirect branches.
system.switch_cpus.cc_regfile_reads          15571750                       # number of cc regfile reads
system.switch_cpus.cc_regfile_writes          9162499                       # number of cc regfile writes
system.switch_cpus.commit.amos                      0                       # Number of atomic instructions committed
system.switch_cpus.commit.branchMispredicts       170940                       # The number of times a branch was mispredicted
system.switch_cpus.commit.branches            2713376                       # Number of branches committed
system.switch_cpus.commit.bw_lim_events       1324432                       # number cycles where commit BW limit reached
system.switch_cpus.commit.commitSquashedInsts      6362692                       # The number of squashed insts skipped by commit
system.switch_cpus.commit.committedInsts     10000000                       # Number of instructions committed
system.switch_cpus.commit.committedOps       17564223                       # Number of ops (including micro ops) committed
system.switch_cpus.commit.committed_per_cycle::samples     49046390                       # Number of insts commited each cycle
system.switch_cpus.commit.committed_per_cycle::mean     0.358114                       # Number of insts commited each cycle
system.switch_cpus.commit.committed_per_cycle::stdev     1.425943                       # Number of insts commited each cycle
system.switch_cpus.commit.committed_per_cycle::underflows            0      0.00%      0.00% # Number of insts commited each cycle
system.switch_cpus.commit.committed_per_cycle::0     44616135     90.97%     90.97% # Number of insts commited each cycle
system.switch_cpus.commit.committed_per_cycle::1      1272829      2.60%     93.56% # Number of insts commited each cycle
system.switch_cpus.commit.committed_per_cycle::2       523775      1.07%     94.63% # Number of insts commited each cycle
system.switch_cpus.commit.committed_per_cycle::3       939752      1.92%     96.55% # Number of insts commited each cycle
system.switch_cpus.commit.committed_per_cycle::4       154862      0.32%     96.86% # Number of insts commited each cycle
system.switch_cpus.commit.committed_per_cycle::5       118517      0.24%     97.10% # Number of insts commited each cycle
system.switch_cpus.commit.committed_per_cycle::6        55517      0.11%     97.22% # Number of insts commited each cycle
system.switch_cpus.commit.committed_per_cycle::7        40571      0.08%     97.30% # Number of insts commited each cycle
system.switch_cpus.commit.committed_per_cycle::8      1324432      2.70%    100.00% # Number of insts commited each cycle
system.switch_cpus.commit.committed_per_cycle::overflows            0      0.00%    100.00% # Number of insts commited each cycle
system.switch_cpus.commit.committed_per_cycle::min_value            0                       # Number of insts commited each cycle
system.switch_cpus.commit.committed_per_cycle::max_value            8                       # Number of insts commited each cycle
system.switch_cpus.commit.committed_per_cycle::total     49046390                       # Number of insts commited each cycle
system.switch_cpus.commit.fp_insts                  0                       # Number of committed floating point instructions.
system.switch_cpus.commit.function_calls         2082                       # Number of function calls committed.
system.switch_cpus.commit.int_insts          17541010                       # Number of committed integer instructions.
system.switch_cpus.commit.loads               3923977                       # Number of loads committed
system.switch_cpus.commit.membars                   0                       # Number of memory barriers committed
system.switch_cpus.commit.op_class_0::No_OpClass        20038      0.11%      0.11% # Class of committed instruction
system.switch_cpus.commit.op_class_0::IntAlu     13353407     76.03%     76.14% # Class of committed instruction
system.switch_cpus.commit.op_class_0::IntMult          330      0.00%     76.14% # Class of committed instruction
system.switch_cpus.commit.op_class_0::IntDiv            0      0.00%     76.14% # Class of committed instruction
system.switch_cpus.commit.op_class_0::FloatAdd            0      0.00%     76.14% # Class of committed instruction
system.switch_cpus.commit.op_class_0::FloatCmp            0      0.00%     76.14% # Class of committed instruction
system.switch_cpus.commit.op_class_0::FloatCvt            0      0.00%     76.14% # Class of committed instruction
system.switch_cpus.commit.op_class_0::FloatMult            0      0.00%     76.14% # Class of committed instruction
system.switch_cpus.commit.op_class_0::FloatMultAcc            0      0.00%     76.14% # Class of committed instruction
system.switch_cpus.commit.op_class_0::FloatDiv            0      0.00%     76.14% # Class of committed instruction
system.switch_cpus.commit.op_class_0::FloatMisc            0      0.00%     76.14% # Class of committed instruction
system.switch_cpus.commit.op_class_0::FloatSqrt            0      0.00%     76.14% # Class of committed instruction
system.switch_cpus.commit.op_class_0::SimdAdd            0      0.00%     76.14% # Class of committed instruction
system.switch_cpus.commit.op_class_0::SimdAddAcc            0      0.00%     76.14% # Class of committed instruction
system.switch_cpus.commit.op_class_0::SimdAlu            0      0.00%     76.14% # Class of committed instruction
system.switch_cpus.commit.op_class_0::SimdCmp            0      0.00%     76.14% # Class of committed instruction
system.switch_cpus.commit.op_class_0::SimdCvt            0      0.00%     76.14% # Class of committed instruction
system.switch_cpus.commit.op_class_0::SimdMisc            0      0.00%     76.14% # Class of committed instruction
system.switch_cpus.commit.op_class_0::SimdMult            0      0.00%     76.14% # Class of committed instruction
system.switch_cpus.commit.op_class_0::SimdMultAcc            0      0.00%     76.14% # Class of committed instruction
system.switch_cpus.commit.op_class_0::SimdShift            0      0.00%     76.14% # Class of committed instruction
system.switch_cpus.commit.op_class_0::SimdShiftAcc            0      0.00%     76.14% # Class of committed instruction
system.switch_cpus.commit.op_class_0::SimdDiv            0      0.00%     76.14% # Class of committed instruction
system.switch_cpus.commit.op_class_0::SimdSqrt            0      0.00%     76.14% # Class of committed instruction
system.switch_cpus.commit.op_class_0::SimdFloatAdd            0      0.00%     76.14% # Class of committed instruction
system.switch_cpus.commit.op_class_0::SimdFloatAlu            0      0.00%     76.14% # Class of committed instruction
system.switch_cpus.commit.op_class_0::SimdFloatCmp            0      0.00%     76.14% # Class of committed instruction
system.switch_cpus.commit.op_class_0::SimdFloatCvt            0      0.00%     76.14% # Class of committed instruction
system.switch_cpus.commit.op_class_0::SimdFloatDiv            0      0.00%     76.14% # Class of committed instruction
system.switch_cpus.commit.op_class_0::SimdFloatMisc            0      0.00%     76.14% # Class of committed instruction
system.switch_cpus.commit.op_class_0::SimdFloatMult            0      0.00%     76.14% # Class of committed instruction
system.switch_cpus.commit.op_class_0::SimdFloatMultAcc            0      0.00%     76.14% # Class of committed instruction
system.switch_cpus.commit.op_class_0::SimdFloatSqrt            0      0.00%     76.14% # Class of committed instruction
system.switch_cpus.commit.op_class_0::SimdReduceAdd            0      0.00%     76.14% # Class of committed instruction
system.switch_cpus.commit.op_class_0::SimdReduceAlu            0      0.00%     76.14% # Class of committed instruction
system.switch_cpus.commit.op_class_0::SimdReduceCmp            0      0.00%     76.14% # Class of committed instruction
system.switch_cpus.commit.op_class_0::SimdFloatReduceAdd            0      0.00%     76.14% # Class of committed instruction
system.switch_cpus.commit.op_class_0::SimdFloatReduceCmp            0      0.00%     76.14% # Class of committed instruction
system.switch_cpus.commit.op_class_0::SimdAes            0      0.00%     76.14% # Class of committed instruction
system.switch_cpus.commit.op_class_0::SimdAesMix            0      0.00%     76.14% # Class of committed instruction
system.switch_cpus.commit.op_class_0::SimdSha1Hash            0      0.00%     76.14% # Class of committed instruction
system.switch_cpus.commit.op_class_0::SimdSha1Hash2            0      0.00%     76.14% # Class of committed instruction
system.switch_cpus.commit.op_class_0::SimdSha256Hash            0      0.00%     76.14% # Class of committed instruction
system.switch_cpus.commit.op_class_0::SimdSha256Hash2            0      0.00%     76.14% # Class of committed instruction
system.switch_cpus.commit.op_class_0::SimdShaSigma2            0      0.00%     76.14% # Class of committed instruction
system.switch_cpus.commit.op_class_0::SimdShaSigma3            0      0.00%     76.14% # Class of committed instruction
system.switch_cpus.commit.op_class_0::SimdPredAlu            0      0.00%     76.14% # Class of committed instruction
system.switch_cpus.commit.op_class_0::MemRead      3923977     22.34%     98.48% # Class of committed instruction
system.switch_cpus.commit.op_class_0::MemWrite       266471      1.52%    100.00% # Class of committed instruction
system.switch_cpus.commit.op_class_0::FloatMemRead            0      0.00%    100.00% # Class of committed instruction
system.switch_cpus.commit.op_class_0::FloatMemWrite            0      0.00%    100.00% # Class of committed instruction
system.switch_cpus.commit.op_class_0::IprAccess            0      0.00%    100.00% # Class of committed instruction
system.switch_cpus.commit.op_class_0::InstPrefetch            0      0.00%    100.00% # Class of committed instruction
system.switch_cpus.commit.op_class_0::total     17564223                       # Class of committed instruction
system.switch_cpus.commit.refs                4190448                       # Number of memory references committed
system.switch_cpus.commit.swp_count                 0                       # Number of s/w prefetches committed
system.switch_cpus.commit.vec_insts                 0                       # Number of committed Vector instructions.
system.switch_cpus.committedInsts            10000000                       # Number of Instructions Simulated
system.switch_cpus.committedOps              17564223                       # Number of Ops (including micro ops) Simulated
system.switch_cpus.cpi                       5.003554                       # CPI: Cycles Per Instruction
system.switch_cpus.cpi_total                 5.003554                       # CPI: Total CPI of All Threads
system.switch_cpus.decode.BlockedCycles      45111176                       # Number of cycles decode is blocked
system.switch_cpus.decode.DecodedInsts       26214032                       # Number of instructions handled by decode
system.switch_cpus.decode.IdleCycles          1210601                       # Number of cycles decode is idle
system.switch_cpus.decode.RunCycles           1922171                       # Number of cycles decode is running
system.switch_cpus.decode.SquashCycles         171732                       # Number of cycles decode is squashing
system.switch_cpus.decode.UnblockCycles       1615461                       # Number of cycles decode is unblocking
system.switch_cpus.dtb.rdAccesses             4565039                       # TLB accesses on read requests
system.switch_cpus.dtb.rdMisses               1391447                       # TLB misses on read requests
system.switch_cpus.dtb.wrAccesses              380446                       # TLB accesses on write requests
system.switch_cpus.dtb.wrMisses                  9928                       # TLB misses on write requests
system.switch_cpus.fetch.Branches             4220966                       # Number of branches that fetch encountered
system.switch_cpus.fetch.CacheLines            878029                       # Number of cache lines fetched
system.switch_cpus.fetch.Cycles              48886130                       # Number of cycles fetch has run and was not squashing or blocked
system.switch_cpus.fetch.IcacheSquashes         33985                       # Number of outstanding Icache misses that were squashed
system.switch_cpus.fetch.Insts               16469397                       # Number of instructions fetch has processed
system.switch_cpus.fetch.MiscStallCycles           20                       # Number of cycles fetch has spent waiting on interrupts, or bad addresses, or out of MSHRs
system.switch_cpus.fetch.PendingTrapStallCycles          197                       # Number of stall cycles due to pending traps
system.switch_cpus.fetch.SquashCycles          343464                       # Number of cycles fetch has spent squashing
system.switch_cpus.fetch.branchRate          0.084359                       # Number of branch fetches per cycle
system.switch_cpus.fetch.icacheStallCycles       973069                       # Number of cycles fetch is stalled on an Icache miss
system.switch_cpus.fetch.predictedBranches      1907690                       # Number of branches that fetch has predicted taken
system.switch_cpus.fetch.rate                0.329154                       # Number of inst fetches per cycle
system.switch_cpus.fetch.rateDist::samples     50031148                       # Number of instructions fetched each cycle (Total)
system.switch_cpus.fetch.rateDist::mean      0.573066                       # Number of instructions fetched each cycle (Total)
system.switch_cpus.fetch.rateDist::stdev     1.880389                       # Number of instructions fetched each cycle (Total)
system.switch_cpus.fetch.rateDist::underflows            0      0.00%      0.00% # Number of instructions fetched each cycle (Total)
system.switch_cpus.fetch.rateDist::0         45076970     90.10%     90.10% # Number of instructions fetched each cycle (Total)
system.switch_cpus.fetch.rateDist::1           303914      0.61%     90.71% # Number of instructions fetched each cycle (Total)
system.switch_cpus.fetch.rateDist::2           313044      0.63%     91.33% # Number of instructions fetched each cycle (Total)
system.switch_cpus.fetch.rateDist::3           334498      0.67%     92.00% # Number of instructions fetched each cycle (Total)
system.switch_cpus.fetch.rateDist::4           549517      1.10%     93.10% # Number of instructions fetched each cycle (Total)
system.switch_cpus.fetch.rateDist::5           799331      1.60%     94.70% # Number of instructions fetched each cycle (Total)
system.switch_cpus.fetch.rateDist::6           232371      0.46%     95.16% # Number of instructions fetched each cycle (Total)
system.switch_cpus.fetch.rateDist::7           223326      0.45%     95.61% # Number of instructions fetched each cycle (Total)
system.switch_cpus.fetch.rateDist::8          2198177      4.39%    100.00% # Number of instructions fetched each cycle (Total)
system.switch_cpus.fetch.rateDist::overflows            0      0.00%    100.00% # Number of instructions fetched each cycle (Total)
system.switch_cpus.fetch.rateDist::min_value            0                       # Number of instructions fetched each cycle (Total)
system.switch_cpus.fetch.rateDist::max_value            8                       # Number of instructions fetched each cycle (Total)
system.switch_cpus.fetch.rateDist::total     50031148                       # Number of instructions fetched each cycle (Total)
system.switch_cpus.fp_regfile_writes               56                       # number of floating regfile writes
system.switch_cpus.idleCycles                    4389                       # Total number of cycles that the CPU has spent unscheduled due to idling
system.switch_cpus.iew.branchMispredicts       218467                       # Number of branch mispredicts detected at execute
system.switch_cpus.iew.exec_branches          3082914                       # Number of branches executed
system.switch_cpus.iew.exec_nop                     0                       # number of nop insts executed
system.switch_cpus.iew.exec_rate             0.654643                       # Inst execution rate
system.switch_cpus.iew.exec_refs             16217350                       # number of memory reference insts executed
system.switch_cpus.iew.exec_stores             380435                       # Number of stores executed
system.switch_cpus.iew.exec_swp                     0                       # number of swp insts executed
system.switch_cpus.iew.iewBlockCycles        19867679                       # Number of cycles IEW is blocking
system.switch_cpus.iew.iewDispLoadInsts       5061346                       # Number of dispatched load instructions
system.switch_cpus.iew.iewDispNonSpecInsts            0                       # Number of dispatched non-speculative instructions
system.switch_cpus.iew.iewDispSquashedInsts        27021                       # Number of squashed instructions skipped by dispatch
system.switch_cpus.iew.iewDispStoreInsts       565091                       # Number of dispatched store instructions
system.switch_cpus.iew.iewDispatchedInsts     23921467                       # Number of instructions dispatched to IQ
system.switch_cpus.iew.iewExecLoadInsts      15836915                       # Number of load instructions executed
system.switch_cpus.iew.iewExecSquashedInsts       378860                       # Number of squashed instructions skipped in execute
system.switch_cpus.iew.iewExecutedInsts      32755426                       # Number of executed instructions
system.switch_cpus.iew.iewIQFullEvents         290792                       # Number of times the IQ has become full, causing a stall
system.switch_cpus.iew.iewIdleCycles                0                       # Number of cycles IEW is idle
system.switch_cpus.iew.iewLSQFullEvents       3945215                       # Number of times the LSQ has become full, causing a stall
system.switch_cpus.iew.iewSquashCycles         171732                       # Number of cycles IEW is squashing
system.switch_cpus.iew.iewUnblockCycles       4489364                       # Number of cycles IEW is unblocking
system.switch_cpus.iew.lsq.thread0.blockedLoads            0                       # Number of blocked loads due to partial load-store forwarding
system.switch_cpus.iew.lsq.thread0.cacheBlocked      1187581                       # Number of times an access to memory failed due to the cache being blocked
system.switch_cpus.iew.lsq.thread0.forwLoads        43496                       # Number of loads that had data forwarded from stores
system.switch_cpus.iew.lsq.thread0.ignoredResponses          313                       # Number of memory responses ignored because the instruction is squashed
system.switch_cpus.iew.lsq.thread0.invAddrLoads            0                       # Number of loads ignored due to an invalid address
system.switch_cpus.iew.lsq.thread0.invAddrSwpfs            0                       # Number of software prefetches ignored due to an invalid address
system.switch_cpus.iew.lsq.thread0.memOrderViolation         1361                       # Number of memory ordering violations
system.switch_cpus.iew.lsq.thread0.rescheduledLoads            0                       # Number of loads that were rescheduled
system.switch_cpus.iew.lsq.thread0.squashedLoads      1137343                       # Number of loads squashed
system.switch_cpus.iew.lsq.thread0.squashedStores       298620                       # Number of stores squashed
system.switch_cpus.iew.memOrderViolationEvents         1361                       # Number of memory order violations
system.switch_cpus.iew.predictedNotTakenIncorrect       177502                       # Number of branches that were predicted not taken incorrectly
system.switch_cpus.iew.predictedTakenIncorrect        40965                       # Number of branches that were predicted taken incorrectly
system.switch_cpus.iew.wb_consumers          21703095                       # num instructions consuming a value
system.switch_cpus.iew.wb_count              21130909                       # cumulative count of insts written-back
system.switch_cpus.iew.wb_fanout             0.706365                       # average fanout of values written-back
system.switch_cpus.iew.wb_producers          15330310                       # num instructions producing a value
system.switch_cpus.iew.wb_rate               0.422318                       # insts written-back per cycle
system.switch_cpus.iew.wb_sent               21189837                       # cumulative count of insts sent to commit
system.switch_cpus.int_regfile_reads         49953776                       # number of integer regfile reads
system.switch_cpus.int_regfile_writes        17608253                       # number of integer regfile writes
system.switch_cpus.ipc                       0.199858                       # IPC: Instructions Per Cycle
system.switch_cpus.ipc_total                 0.199858                       # IPC: Total IPC of All Threads
system.switch_cpus.iq.FU_type_0::No_OpClass        98313      0.30%      0.30% # Type of FU issued
system.switch_cpus.iq.FU_type_0::IntAlu      16715335     50.45%     50.74% # Type of FU issued
system.switch_cpus.iq.FU_type_0::IntMult          553      0.00%     50.75% # Type of FU issued
system.switch_cpus.iq.FU_type_0::IntDiv             0      0.00%     50.75% # Type of FU issued
system.switch_cpus.iq.FU_type_0::FloatAdd            0      0.00%     50.75% # Type of FU issued
system.switch_cpus.iq.FU_type_0::FloatCmp            0      0.00%     50.75% # Type of FU issued
system.switch_cpus.iq.FU_type_0::FloatCvt            0      0.00%     50.75% # Type of FU issued
system.switch_cpus.iq.FU_type_0::FloatMult            0      0.00%     50.75% # Type of FU issued
system.switch_cpus.iq.FU_type_0::FloatMultAcc            0      0.00%     50.75% # Type of FU issued
system.switch_cpus.iq.FU_type_0::FloatDiv            0      0.00%     50.75% # Type of FU issued
system.switch_cpus.iq.FU_type_0::FloatMisc            0      0.00%     50.75% # Type of FU issued
system.switch_cpus.iq.FU_type_0::FloatSqrt            0      0.00%     50.75% # Type of FU issued
system.switch_cpus.iq.FU_type_0::SimdAdd            0      0.00%     50.75% # Type of FU issued
system.switch_cpus.iq.FU_type_0::SimdAddAcc            0      0.00%     50.75% # Type of FU issued
system.switch_cpus.iq.FU_type_0::SimdAlu            0      0.00%     50.75% # Type of FU issued
system.switch_cpus.iq.FU_type_0::SimdCmp            0      0.00%     50.75% # Type of FU issued
system.switch_cpus.iq.FU_type_0::SimdCvt            0      0.00%     50.75% # Type of FU issued
system.switch_cpus.iq.FU_type_0::SimdMisc            0      0.00%     50.75% # Type of FU issued
system.switch_cpus.iq.FU_type_0::SimdMult            0      0.00%     50.75% # Type of FU issued
system.switch_cpus.iq.FU_type_0::SimdMultAcc            0      0.00%     50.75% # Type of FU issued
system.switch_cpus.iq.FU_type_0::SimdShift            0      0.00%     50.75% # Type of FU issued
system.switch_cpus.iq.FU_type_0::SimdShiftAcc            0      0.00%     50.75% # Type of FU issued
system.switch_cpus.iq.FU_type_0::SimdDiv            0      0.00%     50.75% # Type of FU issued
system.switch_cpus.iq.FU_type_0::SimdSqrt            0      0.00%     50.75% # Type of FU issued
system.switch_cpus.iq.FU_type_0::SimdFloatAdd            0      0.00%     50.75% # Type of FU issued
system.switch_cpus.iq.FU_type_0::SimdFloatAlu            0      0.00%     50.75% # Type of FU issued
system.switch_cpus.iq.FU_type_0::SimdFloatCmp            0      0.00%     50.75% # Type of FU issued
system.switch_cpus.iq.FU_type_0::SimdFloatCvt            0      0.00%     50.75% # Type of FU issued
system.switch_cpus.iq.FU_type_0::SimdFloatDiv            0      0.00%     50.75% # Type of FU issued
system.switch_cpus.iq.FU_type_0::SimdFloatMisc            0      0.00%     50.75% # Type of FU issued
system.switch_cpus.iq.FU_type_0::SimdFloatMult            0      0.00%     50.75% # Type of FU issued
system.switch_cpus.iq.FU_type_0::SimdFloatMultAcc            0      0.00%     50.75% # Type of FU issued
system.switch_cpus.iq.FU_type_0::SimdFloatSqrt            0      0.00%     50.75% # Type of FU issued
system.switch_cpus.iq.FU_type_0::SimdReduceAdd            0      0.00%     50.75% # Type of FU issued
system.switch_cpus.iq.FU_type_0::SimdReduceAlu            0      0.00%     50.75% # Type of FU issued
system.switch_cpus.iq.FU_type_0::SimdReduceCmp            0      0.00%     50.75% # Type of FU issued
system.switch_cpus.iq.FU_type_0::SimdFloatReduceAdd            0      0.00%     50.75% # Type of FU issued
system.switch_cpus.iq.FU_type_0::SimdFloatReduceCmp            0      0.00%     50.75% # Type of FU issued
system.switch_cpus.iq.FU_type_0::SimdAes            0      0.00%     50.75% # Type of FU issued
system.switch_cpus.iq.FU_type_0::SimdAesMix            0      0.00%     50.75% # Type of FU issued
system.switch_cpus.iq.FU_type_0::SimdSha1Hash            0      0.00%     50.75% # Type of FU issued
system.switch_cpus.iq.FU_type_0::SimdSha1Hash2            0      0.00%     50.75% # Type of FU issued
system.switch_cpus.iq.FU_type_0::SimdSha256Hash            0      0.00%     50.75% # Type of FU issued
system.switch_cpus.iq.FU_type_0::SimdSha256Hash2            0      0.00%     50.75% # Type of FU issued
system.switch_cpus.iq.FU_type_0::SimdShaSigma2            0      0.00%     50.75% # Type of FU issued
system.switch_cpus.iq.FU_type_0::SimdShaSigma3            0      0.00%     50.75% # Type of FU issued
system.switch_cpus.iq.FU_type_0::SimdPredAlu            0      0.00%     50.75% # Type of FU issued
system.switch_cpus.iq.FU_type_0::MemRead     15917357     48.04%     98.78% # Type of FU issued
system.switch_cpus.iq.FU_type_0::MemWrite       402728      1.22%    100.00% # Type of FU issued
system.switch_cpus.iq.FU_type_0::FloatMemRead            0      0.00%    100.00% # Type of FU issued
system.switch_cpus.iq.FU_type_0::FloatMemWrite            0      0.00%    100.00% # Type of FU issued
system.switch_cpus.iq.FU_type_0::IprAccess            0      0.00%    100.00% # Type of FU issued
system.switch_cpus.iq.FU_type_0::InstPrefetch            0      0.00%    100.00% # Type of FU issued
system.switch_cpus.iq.FU_type_0::total       33134286                       # Type of FU issued
system.switch_cpus.iq.fp_alu_accesses               0                       # Number of floating point alu accesses
system.switch_cpus.iq.fp_inst_queue_reads            0                       # Number of floating instruction queue reads
system.switch_cpus.iq.fp_inst_queue_wakeup_accesses            0                       # Number of floating instruction queue wakeup accesses
system.switch_cpus.iq.fp_inst_queue_writes            0                       # Number of floating instruction queue writes
system.switch_cpus.iq.fu_busy_cnt             2251983                       # FU busy when requested
system.switch_cpus.iq.fu_busy_rate           0.067965                       # FU busy rate (busy events/executed inst)
system.switch_cpus.iq.fu_full::No_OpClass            0      0.00%      0.00% # attempts to use FU when none available
system.switch_cpus.iq.fu_full::IntAlu           88184      3.92%      3.92% # attempts to use FU when none available
system.switch_cpus.iq.fu_full::IntMult              0      0.00%      3.92% # attempts to use FU when none available
system.switch_cpus.iq.fu_full::IntDiv               0      0.00%      3.92% # attempts to use FU when none available
system.switch_cpus.iq.fu_full::FloatAdd             0      0.00%      3.92% # attempts to use FU when none available
system.switch_cpus.iq.fu_full::FloatCmp             0      0.00%      3.92% # attempts to use FU when none available
system.switch_cpus.iq.fu_full::FloatCvt             0      0.00%      3.92% # attempts to use FU when none available
system.switch_cpus.iq.fu_full::FloatMult            0      0.00%      3.92% # attempts to use FU when none available
system.switch_cpus.iq.fu_full::FloatMultAcc            0      0.00%      3.92% # attempts to use FU when none available
system.switch_cpus.iq.fu_full::FloatDiv             0      0.00%      3.92% # attempts to use FU when none available
system.switch_cpus.iq.fu_full::FloatMisc            0      0.00%      3.92% # attempts to use FU when none available
system.switch_cpus.iq.fu_full::FloatSqrt            0      0.00%      3.92% # attempts to use FU when none available
system.switch_cpus.iq.fu_full::SimdAdd              0      0.00%      3.92% # attempts to use FU when none available
system.switch_cpus.iq.fu_full::SimdAddAcc            0      0.00%      3.92% # attempts to use FU when none available
system.switch_cpus.iq.fu_full::SimdAlu              0      0.00%      3.92% # attempts to use FU when none available
system.switch_cpus.iq.fu_full::SimdCmp              0      0.00%      3.92% # attempts to use FU when none available
system.switch_cpus.iq.fu_full::SimdCvt              0      0.00%      3.92% # attempts to use FU when none available
system.switch_cpus.iq.fu_full::SimdMisc             0      0.00%      3.92% # attempts to use FU when none available
system.switch_cpus.iq.fu_full::SimdMult             0      0.00%      3.92% # attempts to use FU when none available
system.switch_cpus.iq.fu_full::SimdMultAcc            0      0.00%      3.92% # attempts to use FU when none available
system.switch_cpus.iq.fu_full::SimdShift            0      0.00%      3.92% # attempts to use FU when none available
system.switch_cpus.iq.fu_full::SimdShiftAcc            0      0.00%      3.92% # attempts to use FU when none available
system.switch_cpus.iq.fu_full::SimdDiv              0      0.00%      3.92% # attempts to use FU when none available
system.switch_cpus.iq.fu_full::SimdSqrt             0      0.00%      3.92% # attempts to use FU when none available
system.switch_cpus.iq.fu_full::SimdFloatAdd            0      0.00%      3.92% # attempts to use FU when none available
system.switch_cpus.iq.fu_full::SimdFloatAlu            0      0.00%      3.92% # attempts to use FU when none available
system.switch_cpus.iq.fu_full::SimdFloatCmp            0      0.00%      3.92% # attempts to use FU when none available
system.switch_cpus.iq.fu_full::SimdFloatCvt            0      0.00%      3.92% # attempts to use FU when none available
system.switch_cpus.iq.fu_full::SimdFloatDiv            0      0.00%      3.92% # attempts to use FU when none available
system.switch_cpus.iq.fu_full::SimdFloatMisc            0      0.00%      3.92% # attempts to use FU when none available
system.switch_cpus.iq.fu_full::SimdFloatMult            0      0.00%      3.92% # attempts to use FU when none available
system.switch_cpus.iq.fu_full::SimdFloatMultAcc            0      0.00%      3.92% # attempts to use FU when none available
system.switch_cpus.iq.fu_full::SimdFloatSqrt            0      0.00%      3.92% # attempts to use FU when none available
system.switch_cpus.iq.fu_full::SimdReduceAdd            0      0.00%      3.92% # attempts to use FU when none available
system.switch_cpus.iq.fu_full::SimdReduceAlu            0      0.00%      3.92% # attempts to use FU when none available
system.switch_cpus.iq.fu_full::SimdReduceCmp            0      0.00%      3.92% # attempts to use FU when none available
system.switch_cpus.iq.fu_full::SimdFloatReduceAdd            0      0.00%      3.92% # attempts to use FU when none available
system.switch_cpus.iq.fu_full::SimdFloatReduceCmp            0      0.00%      3.92% # attempts to use FU when none available
system.switch_cpus.iq.fu_full::SimdAes              0      0.00%      3.92% # attempts to use FU when none available
system.switch_cpus.iq.fu_full::SimdAesMix            0      0.00%      3.92% # attempts to use FU when none available
system.switch_cpus.iq.fu_full::SimdSha1Hash            0      0.00%      3.92% # attempts to use FU when none available
system.switch_cpus.iq.fu_full::SimdSha1Hash2            0      0.00%      3.92% # attempts to use FU when none available
system.switch_cpus.iq.fu_full::SimdSha256Hash            0      0.00%      3.92% # attempts to use FU when none available
system.switch_cpus.iq.fu_full::SimdSha256Hash2            0      0.00%      3.92% # attempts to use FU when none available
system.switch_cpus.iq.fu_full::SimdShaSigma2            0      0.00%      3.92% # attempts to use FU when none available
system.switch_cpus.iq.fu_full::SimdShaSigma3            0      0.00%      3.92% # attempts to use FU when none available
system.switch_cpus.iq.fu_full::SimdPredAlu            0      0.00%      3.92% # attempts to use FU when none available
system.switch_cpus.iq.fu_full::MemRead        2146112     95.30%     99.21% # attempts to use FU when none available
system.switch_cpus.iq.fu_full::MemWrite         17687      0.79%    100.00% # attempts to use FU when none available
system.switch_cpus.iq.fu_full::FloatMemRead            0      0.00%    100.00% # attempts to use FU when none available
system.switch_cpus.iq.fu_full::FloatMemWrite            0      0.00%    100.00% # attempts to use FU when none available
system.switch_cpus.iq.fu_full::IprAccess            0      0.00%    100.00% # attempts to use FU when none available
system.switch_cpus.iq.fu_full::InstPrefetch            0      0.00%    100.00% # attempts to use FU when none available
system.switch_cpus.iq.int_alu_accesses       35287956                       # Number of integer alu accesses
system.switch_cpus.iq.int_inst_queue_reads    118671551                       # Number of integer instruction queue reads
system.switch_cpus.iq.int_inst_queue_wakeup_accesses     21130909                       # Number of integer instruction queue wakeup accesses
system.switch_cpus.iq.int_inst_queue_writes     30279467                       # Number of integer instruction queue writes
system.switch_cpus.iq.iqInstsAdded           23921467                       # Number of instructions added to the IQ (excludes non-spec)
system.switch_cpus.iq.iqInstsIssued          33134286                       # Number of instructions issued
system.switch_cpus.iq.iqSquashedInstsExamined      6357141                       # Number of squashed instructions iterated over during squash; mainly for profiling
system.switch_cpus.iq.iqSquashedInstsIssued       119848                       # Number of squashed instructions issued
system.switch_cpus.iq.iqSquashedOperandsExamined      9632003                       # Number of squashed operands that are examined and possibly removed from graph
system.switch_cpus.iq.issued_per_cycle::samples     50031148                       # Number of insts issued each cycle
system.switch_cpus.iq.issued_per_cycle::mean     0.662273                       # Number of insts issued each cycle
system.switch_cpus.iq.issued_per_cycle::stdev     1.503306                       # Number of insts issued each cycle
system.switch_cpus.iq.issued_per_cycle::underflows            0      0.00%      0.00% # Number of insts issued each cycle
system.switch_cpus.iq.issued_per_cycle::0     38815934     77.58%     77.58% # Number of insts issued each cycle
system.switch_cpus.iq.issued_per_cycle::1      3574342      7.14%     84.73% # Number of insts issued each cycle
system.switch_cpus.iq.issued_per_cycle::2      1804457      3.61%     88.33% # Number of insts issued each cycle
system.switch_cpus.iq.issued_per_cycle::3      1376797      2.75%     91.09% # Number of insts issued each cycle
system.switch_cpus.iq.issued_per_cycle::4      2109142      4.22%     95.30% # Number of insts issued each cycle
system.switch_cpus.iq.issued_per_cycle::5      1251259      2.50%     97.80% # Number of insts issued each cycle
system.switch_cpus.iq.issued_per_cycle::6       719613      1.44%     99.24% # Number of insts issued each cycle
system.switch_cpus.iq.issued_per_cycle::7       226734      0.45%     99.69% # Number of insts issued each cycle
system.switch_cpus.iq.issued_per_cycle::8       152870      0.31%    100.00% # Number of insts issued each cycle
system.switch_cpus.iq.issued_per_cycle::overflows            0      0.00%    100.00% # Number of insts issued each cycle
system.switch_cpus.iq.issued_per_cycle::min_value            0                       # Number of insts issued each cycle
system.switch_cpus.iq.issued_per_cycle::max_value            8                       # Number of insts issued each cycle
system.switch_cpus.iq.issued_per_cycle::total     50031148                       # Number of insts issued each cycle
system.switch_cpus.iq.rate                   0.662215                       # Inst issue rate
system.switch_cpus.iq.vec_alu_accesses              0                       # Number of vector alu accesses
system.switch_cpus.iq.vec_inst_queue_reads            0                       # Number of vector instruction queue reads
system.switch_cpus.iq.vec_inst_queue_wakeup_accesses            0                       # Number of vector instruction queue wakeup accesses
system.switch_cpus.iq.vec_inst_queue_writes            0                       # Number of vector instruction queue writes
system.switch_cpus.itb.rdAccesses                   0                       # TLB accesses on read requests
system.switch_cpus.itb.rdMisses                     0                       # TLB misses on read requests
system.switch_cpus.itb.wrAccesses              878078                       # TLB accesses on write requests
system.switch_cpus.itb.wrMisses                    52                       # TLB misses on write requests
system.switch_cpus.memDep0.conflictingLoads       201263                       # Number of conflicting loads.
system.switch_cpus.memDep0.conflictingStores       166830                       # Number of conflicting stores.
system.switch_cpus.memDep0.insertedLoads      5061346                       # Number of loads inserted to the mem dependence unit.
system.switch_cpus.memDep0.insertedStores       565091                       # Number of stores inserted to the mem dependence unit.
system.switch_cpus.misc_regfile_reads        22848664                       # number of misc regfile reads
system.switch_cpus.misc_regfile_writes              1                       # number of misc regfile writes
system.switch_cpus.numCycles                 50035537                       # number of cpu cycles simulated
system.switch_cpus.numWorkItemsCompleted            0                       # number of work items this cpu completed
system.switch_cpus.numWorkItemsStarted              0                       # number of work items this cpu started
system.switch_cpus.rename.BlockCycles        28446627                       # Number of cycles rename is blocking
system.switch_cpus.rename.CommittedMaps      22614520                       # Number of HB maps that are committed
system.switch_cpus.rename.IQFullEvents        6638135                       # Number of times rename has blocked due to IQ full
system.switch_cpus.rename.IdleCycles          1751888                       # Number of cycles rename is idle
system.switch_cpus.rename.LQFullEvents       13526832                       # Number of times rename has blocked due to LQ full
system.switch_cpus.rename.ROBFullEvents        106244                       # Number of times rename has blocked due to ROB full
system.switch_cpus.rename.RenameLookups      67032160                       # Number of register rename lookups that rename has made
system.switch_cpus.rename.RenamedInsts       25338102                       # Number of instructions processed by rename
system.switch_cpus.rename.RenamedOperands     31877600                       # Number of destination operands rename has renamed
system.switch_cpus.rename.RunCycles           2764373                       # Number of cycles rename is running
system.switch_cpus.rename.SQFullEvents          45079                       # Number of times rename has blocked due to SQ full
system.switch_cpus.rename.SquashCycles         171732                       # Number of cycles rename is squashing
system.switch_cpus.rename.UnblockCycles      16895006                       # Number of cycles rename is unblocking
system.switch_cpus.rename.UndoneMaps          9262926                       # Number of HB maps that are undone due to squashing
system.switch_cpus.rename.int_rename_lookups     34226798                       # Number of integer rename lookups
system.switch_cpus.rename.serializeStallCycles         1515                       # count of cycles rename stalled for serializing inst
system.switch_cpus.rename.serializingInsts         2118                       # count of serializing insts renamed
system.switch_cpus.rename.skidInsts           9492347                       # count of insts added to the skid buffer
system.switch_cpus.rename.tempSerializingInsts         2106                       # count of temporary serializing insts renamed
system.switch_cpus.rob.rob_reads             71648873                       # The number of ROB reads
system.switch_cpus.rob.rob_writes            48848801                       # The number of ROB writes
system.switch_cpus.timesIdled                      52                       # Number of times that the entire CPU went into an idle state and unscheduled itself
system.tol2bus.snoop_filter.hit_multi_requests            0                       # Number of requests hitting in the snoop filter with multiple (>1) holders of the requested data.
system.tol2bus.snoop_filter.hit_multi_snoops            0                       # Number of snoops hitting in the snoop filter with multiple (>1) holders of the requested data.
system.tol2bus.snoop_filter.hit_single_requests      1417710                       # Number of requests hitting in the snoop filter with a single holder of the requested data.
system.tol2bus.snoop_filter.hit_single_snoops       290092                       # Number of snoops hitting in the snoop filter with a single holder of the requested data.
system.tol2bus.snoop_filter.tot_requests      2836510                       # Total number of requests made to the snoop filter.
system.tol2bus.snoop_filter.tot_snoops         290092                       # Total number of snoops made to the snoop filter.
system.membus.pwrStateResidencyTicks::UNDEFINED 190175552048500                       # Cumulative time (in ticks) in various power states
system.membus.trans_dist::ReadResp             694397                       # Transaction distribution
system.membus.trans_dist::WritebackDirty        35426                       # Transaction distribution
system.membus.trans_dist::CleanEvict           653372                       # Transaction distribution
system.membus.trans_dist::ReadExReq              2706                       # Transaction distribution
system.membus.trans_dist::ReadExResp             2706                       # Transaction distribution
system.membus.trans_dist::ReadSharedReq        694399                       # Transaction distribution
system.membus.pkt_count_system.l2.mem_side::system.mem_ctrls.port      2083006                       # Packet count per connected master and slave (bytes)
system.membus.pkt_count_system.l2.mem_side::total      2083006                       # Packet count per connected master and slave (bytes)
system.membus.pkt_count::total                2083006                       # Packet count per connected master and slave (bytes)
system.membus.pkt_size_system.l2.mem_side::system.mem_ctrls.port     46881856                       # Cumulative packet size per connected master and slave (bytes)
system.membus.pkt_size_system.l2.mem_side::total     46881856                       # Cumulative packet size per connected master and slave (bytes)
system.membus.pkt_size::total                46881856                       # Cumulative packet size per connected master and slave (bytes)
system.membus.snoops                                0                       # Total snoops (count)
system.membus.snoopTraffic                          0                       # Total snoop traffic (bytes)
system.membus.snoop_fanout::samples            697105                       # Request fanout histogram
system.membus.snoop_fanout::mean                    0                       # Request fanout histogram
system.membus.snoop_fanout::stdev                   0                       # Request fanout histogram
system.membus.snoop_fanout::underflows              0      0.00%      0.00% # Request fanout histogram
system.membus.snoop_fanout::0                  697105    100.00%    100.00% # Request fanout histogram
system.membus.snoop_fanout::1                       0      0.00%    100.00% # Request fanout histogram
system.membus.snoop_fanout::overflows               0      0.00%    100.00% # Request fanout histogram
system.membus.snoop_fanout::min_value               0                       # Request fanout histogram
system.membus.snoop_fanout::max_value               0                       # Request fanout histogram
system.membus.snoop_fanout::total              697105                       # Request fanout histogram
system.membus.reqLayer2.occupancy          1682725500                       # Layer occupancy (ticks)
system.membus.reqLayer2.utilization               6.7                       # Layer utilization (%)
system.membus.respLayer1.occupancy         3913183000                       # Layer occupancy (ticks)
system.membus.respLayer1.utilization             15.6                       # Layer utilization (%)
system.switch_cpus.pwrStateResidencyTicks::OFF  25017779750                       # Cumulative time (in ticks) in various power states
system.switch_cpus.dtb.walker.pwrStateResidencyTicks::UNDEFINED 190175552048500                       # Cumulative time (in ticks) in various power states
system.switch_cpus.itb.walker.pwrStateResidencyTicks::UNDEFINED 190175552048500                       # Cumulative time (in ticks) in various power states
system.tol2bus.pwrStateResidencyTicks::UNDEFINED 190175552048500                       # Cumulative time (in ticks) in various power states
system.tol2bus.trans_dist::ReadResp           1410912                       # Transaction distribution
system.tol2bus.trans_dist::WritebackDirty       339914                       # Transaction distribution
system.tol2bus.trans_dist::CleanEvict         1785819                       # Transaction distribution
system.tol2bus.trans_dist::ReadExReq             7884                       # Transaction distribution
system.tol2bus.trans_dist::ReadExResp            7884                       # Transaction distribution
system.tol2bus.trans_dist::ReadCleanReq            62                       # Transaction distribution
system.tol2bus.trans_dist::ReadSharedReq      1410854                       # Transaction distribution
system.tol2bus.pkt_count_system.cpu.icache.mem_side::system.l2.cpu_side          124                       # Packet count per connected master and slave (bytes)
system.tol2bus.pkt_count_system.cpu.dcache.mem_side::system.l2.cpu_side      4255182                       # Packet count per connected master and slave (bytes)
system.tol2bus.pkt_count::total               4255306                       # Packet count per connected master and slave (bytes)
system.tol2bus.pkt_size_system.cpu.icache.mem_side::system.l2.cpu_side         3968                       # Cumulative packet size per connected master and slave (bytes)
system.tol2bus.pkt_size_system.cpu.dcache.mem_side::system.l2.cpu_side    110286208                       # Cumulative packet size per connected master and slave (bytes)
system.tol2bus.pkt_size::total              110290176                       # Cumulative packet size per connected master and slave (bytes)
system.tol2bus.snoops                          708023                       # Total snoops (count)
system.tol2bus.snoopTraffic                   2267264                       # Total snoop traffic (bytes)
system.tol2bus.snoop_fanout::samples          2126823                       # Request fanout histogram
system.tol2bus.snoop_fanout::mean            0.136397                       # Request fanout histogram
system.tol2bus.snoop_fanout::stdev           0.343210                       # Request fanout histogram
system.tol2bus.snoop_fanout::underflows             0      0.00%      0.00% # Request fanout histogram
system.tol2bus.snoop_fanout::0                1836731     86.36%     86.36% # Request fanout histogram
system.tol2bus.snoop_fanout::1                 290092     13.64%    100.00% # Request fanout histogram
system.tol2bus.snoop_fanout::2                      0      0.00%    100.00% # Request fanout histogram
system.tol2bus.snoop_fanout::3                      0      0.00%    100.00% # Request fanout histogram
system.tol2bus.snoop_fanout::4                      0      0.00%    100.00% # Request fanout histogram
system.tol2bus.snoop_fanout::overflows              0      0.00%    100.00% # Request fanout histogram
system.tol2bus.snoop_fanout::min_value              0                       # Request fanout histogram
system.tol2bus.snoop_fanout::max_value              1                       # Request fanout histogram
system.tol2bus.snoop_fanout::total            2126823                       # Request fanout histogram
system.tol2bus.reqLayer0.occupancy         1722741500                       # Layer occupancy (ticks)
system.tol2bus.reqLayer0.utilization              6.9                       # Layer utilization (%)
system.tol2bus.respLayer1.occupancy        2128098000                       # Layer occupancy (ticks)
system.tol2bus.respLayer1.utilization             8.5                       # Layer utilization (%)
system.tol2bus.respLayer0.occupancy             91500                       # Layer occupancy (ticks)
system.tol2bus.respLayer0.utilization             0.0                       # Layer utilization (%)
system.voltage_domain.voltage                       1                       # Voltage in Volts
system.clk_domain.clock                          1000                       # Clock period in ticks
system.l2.pwrStateResidencyTicks::UNDEFINED 190175552048500                       # Cumulative time (in ticks) in various power states
system.l2.demand_hits::.switch_cpus.data       721694                       # number of demand (read+write) hits
system.l2.demand_hits::total                   721694                       # number of demand (read+write) hits
system.l2.overall_hits::.switch_cpus.data       721694                       # number of overall hits
system.l2.overall_hits::total                  721694                       # number of overall hits
system.l2.demand_misses::.cpu.inst                  1                       # number of demand (read+write) misses
system.l2.demand_misses::.cpu.data                  2                       # number of demand (read+write) misses
system.l2.demand_misses::.switch_cpus.inst           61                       # number of demand (read+write) misses
system.l2.demand_misses::.switch_cpus.data       697042                       # number of demand (read+write) misses
system.l2.demand_misses::total                 697106                       # number of demand (read+write) misses
system.l2.overall_misses::.cpu.inst                 1                       # number of overall misses
system.l2.overall_misses::.cpu.data                 2                       # number of overall misses
system.l2.overall_misses::.switch_cpus.inst           61                       # number of overall misses
system.l2.overall_misses::.switch_cpus.data       697042                       # number of overall misses
system.l2.overall_misses::total                697106                       # number of overall misses
system.l2.demand_miss_latency::.switch_cpus.inst      5408500                       # number of demand (read+write) miss cycles
system.l2.demand_miss_latency::.switch_cpus.data  70668398500                       # number of demand (read+write) miss cycles
system.l2.demand_miss_latency::total      70673807000                       # number of demand (read+write) miss cycles
system.l2.overall_miss_latency::.switch_cpus.inst      5408500                       # number of overall miss cycles
system.l2.overall_miss_latency::.switch_cpus.data  70668398500                       # number of overall miss cycles
system.l2.overall_miss_latency::total     70673807000                       # number of overall miss cycles
system.l2.demand_accesses::.cpu.inst                1                       # number of demand (read+write) accesses
system.l2.demand_accesses::.cpu.data                2                       # number of demand (read+write) accesses
system.l2.demand_accesses::.switch_cpus.inst           61                       # number of demand (read+write) accesses
system.l2.demand_accesses::.switch_cpus.data      1418736                       # number of demand (read+write) accesses
system.l2.demand_accesses::total              1418800                       # number of demand (read+write) accesses
system.l2.overall_accesses::.cpu.inst               1                       # number of overall (read+write) accesses
system.l2.overall_accesses::.cpu.data               2                       # number of overall (read+write) accesses
system.l2.overall_accesses::.switch_cpus.inst           61                       # number of overall (read+write) accesses
system.l2.overall_accesses::.switch_cpus.data      1418736                       # number of overall (read+write) accesses
system.l2.overall_accesses::total             1418800                       # number of overall (read+write) accesses
system.l2.demand_miss_rate::.cpu.inst               1                       # miss rate for demand accesses
system.l2.demand_miss_rate::.cpu.data               1                       # miss rate for demand accesses
system.l2.demand_miss_rate::.switch_cpus.inst            1                       # miss rate for demand accesses
system.l2.demand_miss_rate::.switch_cpus.data     0.491312                       # miss rate for demand accesses
system.l2.demand_miss_rate::total            0.491335                       # miss rate for demand accesses
system.l2.overall_miss_rate::.cpu.inst              1                       # miss rate for overall accesses
system.l2.overall_miss_rate::.cpu.data              1                       # miss rate for overall accesses
system.l2.overall_miss_rate::.switch_cpus.inst            1                       # miss rate for overall accesses
system.l2.overall_miss_rate::.switch_cpus.data     0.491312                       # miss rate for overall accesses
system.l2.overall_miss_rate::total           0.491335                       # miss rate for overall accesses
system.l2.demand_avg_miss_latency::.switch_cpus.inst 88663.934426                       # average overall miss latency
system.l2.demand_avg_miss_latency::.switch_cpus.data 101383.271740                       # average overall miss latency
system.l2.demand_avg_miss_latency::total 101381.722435                       # average overall miss latency
system.l2.overall_avg_miss_latency::.switch_cpus.inst 88663.934426                       # average overall miss latency
system.l2.overall_avg_miss_latency::.switch_cpus.data 101383.271740                       # average overall miss latency
system.l2.overall_avg_miss_latency::total 101381.722435                       # average overall miss latency
system.l2.blocked_cycles::no_mshrs                  0                       # number of cycles access was blocked
system.l2.blocked_cycles::no_targets                0                       # number of cycles access was blocked
system.l2.blocked::no_mshrs                         0                       # number of cycles access was blocked
system.l2.blocked::no_targets                       0                       # number of cycles access was blocked
system.l2.avg_blocked_cycles::no_mshrs            nan                       # average number of cycles each access was blocked
system.l2.avg_blocked_cycles::no_targets          nan                       # average number of cycles each access was blocked
system.l2.writebacks::.writebacks               35426                       # number of writebacks
system.l2.writebacks::total                     35426                       # number of writebacks
system.l2.demand_mshr_misses::.switch_cpus.inst           61                       # number of demand (read+write) MSHR misses
system.l2.demand_mshr_misses::.switch_cpus.data       697042                       # number of demand (read+write) MSHR misses
system.l2.demand_mshr_misses::total            697103                       # number of demand (read+write) MSHR misses
system.l2.overall_mshr_misses::.switch_cpus.inst           61                       # number of overall MSHR misses
system.l2.overall_mshr_misses::.switch_cpus.data       697042                       # number of overall MSHR misses
system.l2.overall_mshr_misses::total           697103                       # number of overall MSHR misses
system.l2.demand_mshr_miss_latency::.switch_cpus.inst      4798500                       # number of demand (read+write) MSHR miss cycles
system.l2.demand_mshr_miss_latency::.switch_cpus.data  63698008500                       # number of demand (read+write) MSHR miss cycles
system.l2.demand_mshr_miss_latency::total  63702807000                       # number of demand (read+write) MSHR miss cycles
system.l2.overall_mshr_miss_latency::.switch_cpus.inst      4798500                       # number of overall MSHR miss cycles
system.l2.overall_mshr_miss_latency::.switch_cpus.data  63698008500                       # number of overall MSHR miss cycles
system.l2.overall_mshr_miss_latency::total  63702807000                       # number of overall MSHR miss cycles
system.l2.demand_mshr_miss_rate::.switch_cpus.inst            1                       # mshr miss rate for demand accesses
system.l2.demand_mshr_miss_rate::.switch_cpus.data     0.491312                       # mshr miss rate for demand accesses
system.l2.demand_mshr_miss_rate::total       0.491333                       # mshr miss rate for demand accesses
system.l2.overall_mshr_miss_rate::.switch_cpus.inst            1                       # mshr miss rate for overall accesses
system.l2.overall_mshr_miss_rate::.switch_cpus.data     0.491312                       # mshr miss rate for overall accesses
system.l2.overall_mshr_miss_rate::total      0.491333                       # mshr miss rate for overall accesses
system.l2.demand_avg_mshr_miss_latency::.switch_cpus.inst 78663.934426                       # average overall mshr miss latency
system.l2.demand_avg_mshr_miss_latency::.switch_cpus.data 91383.314779                       # average overall mshr miss latency
system.l2.demand_avg_mshr_miss_latency::total 91382.201769                       # average overall mshr miss latency
system.l2.overall_avg_mshr_miss_latency::.switch_cpus.inst 78663.934426                       # average overall mshr miss latency
system.l2.overall_avg_mshr_miss_latency::.switch_cpus.data 91383.314779                       # average overall mshr miss latency
system.l2.overall_avg_mshr_miss_latency::total 91382.201769                       # average overall mshr miss latency
system.l2.replacements                         708023                       # number of replacements
system.l2.WritebackDirty_hits::.writebacks       304488                       # number of WritebackDirty hits
system.l2.WritebackDirty_hits::total           304488                       # number of WritebackDirty hits
system.l2.WritebackDirty_accesses::.writebacks       304488                       # number of WritebackDirty accesses(hits+misses)
system.l2.WritebackDirty_accesses::total       304488                       # number of WritebackDirty accesses(hits+misses)
system.l2.CleanEvict_mshr_misses::.writebacks       270867                       # number of CleanEvict MSHR misses
system.l2.CleanEvict_mshr_misses::total        270867                       # number of CleanEvict MSHR misses
system.l2.CleanEvict_mshr_miss_rate::.writebacks          inf                       # mshr miss rate for CleanEvict accesses
system.l2.CleanEvict_mshr_miss_rate::total          inf                       # mshr miss rate for CleanEvict accesses
system.l2.ReadExReq_hits::.switch_cpus.data         5178                       # number of ReadExReq hits
system.l2.ReadExReq_hits::total                  5178                       # number of ReadExReq hits
system.l2.ReadExReq_misses::.switch_cpus.data         2706                       # number of ReadExReq misses
system.l2.ReadExReq_misses::total                2706                       # number of ReadExReq misses
system.l2.ReadExReq_miss_latency::.switch_cpus.data    232508000                       # number of ReadExReq miss cycles
system.l2.ReadExReq_miss_latency::total     232508000                       # number of ReadExReq miss cycles
system.l2.ReadExReq_accesses::.switch_cpus.data         7884                       # number of ReadExReq accesses(hits+misses)
system.l2.ReadExReq_accesses::total              7884                       # number of ReadExReq accesses(hits+misses)
system.l2.ReadExReq_miss_rate::.switch_cpus.data     0.343227                       # miss rate for ReadExReq accesses
system.l2.ReadExReq_miss_rate::total         0.343227                       # miss rate for ReadExReq accesses
system.l2.ReadExReq_avg_miss_latency::.switch_cpus.data 85923.133777                       # average ReadExReq miss latency
system.l2.ReadExReq_avg_miss_latency::total 85923.133777                       # average ReadExReq miss latency
system.l2.ReadExReq_mshr_misses::.switch_cpus.data         2706                       # number of ReadExReq MSHR misses
system.l2.ReadExReq_mshr_misses::total           2706                       # number of ReadExReq MSHR misses
system.l2.ReadExReq_mshr_miss_latency::.switch_cpus.data    205448000                       # number of ReadExReq MSHR miss cycles
system.l2.ReadExReq_mshr_miss_latency::total    205448000                       # number of ReadExReq MSHR miss cycles
system.l2.ReadExReq_mshr_miss_rate::.switch_cpus.data     0.343227                       # mshr miss rate for ReadExReq accesses
system.l2.ReadExReq_mshr_miss_rate::total     0.343227                       # mshr miss rate for ReadExReq accesses
system.l2.ReadExReq_avg_mshr_miss_latency::.switch_cpus.data 75923.133777                       # average ReadExReq mshr miss latency
system.l2.ReadExReq_avg_mshr_miss_latency::total 75923.133777                       # average ReadExReq mshr miss latency
system.l2.ReadCleanReq_misses::.cpu.inst            1                       # number of ReadCleanReq misses
system.l2.ReadCleanReq_misses::.switch_cpus.inst           61                       # number of ReadCleanReq misses
system.l2.ReadCleanReq_misses::total               62                       # number of ReadCleanReq misses
system.l2.ReadCleanReq_miss_latency::.switch_cpus.inst      5408500                       # number of ReadCleanReq miss cycles
system.l2.ReadCleanReq_miss_latency::total      5408500                       # number of ReadCleanReq miss cycles
system.l2.ReadCleanReq_accesses::.cpu.inst            1                       # number of ReadCleanReq accesses(hits+misses)
system.l2.ReadCleanReq_accesses::.switch_cpus.inst           61                       # number of ReadCleanReq accesses(hits+misses)
system.l2.ReadCleanReq_accesses::total             62                       # number of ReadCleanReq accesses(hits+misses)
system.l2.ReadCleanReq_miss_rate::.cpu.inst            1                       # miss rate for ReadCleanReq accesses
system.l2.ReadCleanReq_miss_rate::.switch_cpus.inst            1                       # miss rate for ReadCleanReq accesses
system.l2.ReadCleanReq_miss_rate::total             1                       # miss rate for ReadCleanReq accesses
system.l2.ReadCleanReq_avg_miss_latency::.switch_cpus.inst 88663.934426                       # average ReadCleanReq miss latency
system.l2.ReadCleanReq_avg_miss_latency::total 87233.870968                       # average ReadCleanReq miss latency
system.l2.ReadCleanReq_mshr_misses::.switch_cpus.inst           61                       # number of ReadCleanReq MSHR misses
system.l2.ReadCleanReq_mshr_misses::total           61                       # number of ReadCleanReq MSHR misses
system.l2.ReadCleanReq_mshr_miss_latency::.switch_cpus.inst      4798500                       # number of ReadCleanReq MSHR miss cycles
system.l2.ReadCleanReq_mshr_miss_latency::total      4798500                       # number of ReadCleanReq MSHR miss cycles
system.l2.ReadCleanReq_mshr_miss_rate::.switch_cpus.inst            1                       # mshr miss rate for ReadCleanReq accesses
system.l2.ReadCleanReq_mshr_miss_rate::total     0.983871                       # mshr miss rate for ReadCleanReq accesses
system.l2.ReadCleanReq_avg_mshr_miss_latency::.switch_cpus.inst 78663.934426                       # average ReadCleanReq mshr miss latency
system.l2.ReadCleanReq_avg_mshr_miss_latency::total 78663.934426                       # average ReadCleanReq mshr miss latency
system.l2.ReadSharedReq_hits::.switch_cpus.data       716516                       # number of ReadSharedReq hits
system.l2.ReadSharedReq_hits::total            716516                       # number of ReadSharedReq hits
system.l2.ReadSharedReq_misses::.cpu.data            2                       # number of ReadSharedReq misses
[...]
system.cpu.icache.tags.occ_task_id_blocks::1024           62                       # Occupied blocks per task id
system.cpu.icache.tags.age_task_id_blocks_1024::4           62                       # Occupied blocks per task id
system.cpu.icache.tags.occ_task_id_percent::1024     0.121094                       # Percentage of cache occupancy per task id
system.cpu.icache.tags.tag_accesses           2710850                       # Number of tag accesses
system.cpu.icache.tags.data_accesses          2710850                       # Number of data accesses
system.cpu.dtb.walker.pwrStateResidencyTicks::UNDEFINED 190251160813000                       # Cumulative time (in ticks) in various power states
system.cpu.interrupts.clk_domain.clock           8000                       # Clock period in ticks
system.cpu.itb_walker_cache.pwrStateResidencyTicks::UNDEFINED 190251160813000                       # Cumulative time (in ticks) in various power states
system.cpu.itb_walker_cache.blocked_cycles::no_mshrs            0                       # number of cycles access was blocked
system.cpu.itb_walker_cache.blocked_cycles::no_targets            0                       # number of cycles access was blocked
system.cpu.itb_walker_cache.blocked::no_mshrs            0                       # number of cycles access was blocked
system.cpu.itb_walker_cache.blocked::no_targets            0                       # number of cycles access was blocked
system.cpu.itb_walker_cache.avg_blocked_cycles::no_mshrs          nan                       # average number of cycles each access was blocked
system.cpu.itb_walker_cache.avg_blocked_cycles::no_targets          nan                       # average number of cycles each access was blocked
system.cpu.itb_walker_cache.replacements            0                       # number of replacements
system.cpu.itb_walker_cache.tags.pwrStateResidencyTicks::UNDEFINED 190251160813000                       # Cumulative time (in ticks) in various power states
system.cpu.itb_walker_cache.tags.tagsinuse            0                       # Cycle average of tags in use
system.cpu.itb_walker_cache.tags.total_refs            0                       # Total number of references to valid blocks.
system.cpu.itb_walker_cache.tags.sampled_refs            0                       # Sample count of references to valid blocks.
system.cpu.itb_walker_cache.tags.avg_refs          nan                       # Average number of references to valid blocks.
system.cpu.itb_walker_cache.tags.warmup_cycle            0                       # Cycle when the warmup percentage was hit.
system.cpu.itb_walker_cache.tags.tag_accesses            0                       # Number of tag accesses
system.cpu.itb_walker_cache.tags.data_accesses            0                       # Number of data accesses
system.cpu.itb.walker.pwrStateResidencyTicks::UNDEFINED 190251160813000                       # Cumulative time (in ticks) in various power states
system.cpu.dtb_walker_cache.pwrStateResidencyTicks::UNDEFINED 190251160813000                       # Cumulative time (in ticks) in various power states
system.cpu.dtb_walker_cache.blocked_cycles::no_mshrs            0                       # number of cycles access was blocked
system.cpu.dtb_walker_cache.blocked_cycles::no_targets            0                       # number of cycles access was blocked
system.cpu.dtb_walker_cache.blocked::no_mshrs            0                       # number of cycles access was blocked
system.cpu.dtb_walker_cache.blocked::no_targets            0                       # number of cycles access was blocked
system.cpu.dtb_walker_cache.avg_blocked_cycles::no_mshrs          nan                       # average number of cycles each access was blocked
system.cpu.dtb_walker_cache.avg_blocked_cycles::no_targets          nan                       # average number of cycles each access was blocked
system.cpu.dtb_walker_cache.replacements            0                       # number of replacements
system.cpu.dtb_walker_cache.tags.pwrStateResidencyTicks::UNDEFINED 190251160813000                       # Cumulative time (in ticks) in various power states
system.cpu.dtb_walker_cache.tags.tagsinuse            0                       # Cycle average of tags in use
system.cpu.dtb_walker_cache.tags.total_refs            0                       # Total number of references to valid blocks.
system.cpu.dtb_walker_cache.tags.sampled_refs            0                       # Sample count of references to valid blocks.
system.cpu.dtb_walker_cache.tags.avg_refs          nan                       # Average number of references to valid blocks.
system.cpu.dtb_walker_cache.tags.warmup_cycle            0                       # Cycle when the warmup percentage was hit.
system.cpu.dtb_walker_cache.tags.tag_accesses            0                       # Number of tag accesses
system.cpu.dtb_walker_cache.tags.data_accesses            0                       # Number of data accesses
system.cpu.dcache.pwrStateResidencyTicks::UNDEFINED 190251160813000                       # Cumulative time (in ticks) in various power states
system.cpu.dcache.demand_hits::.switch_cpus.data      3979832                       # number of demand (read+write) hits
system.cpu.dcache.demand_hits::total          3979832                       # number of demand (read+write) hits
system.cpu.dcache.overall_hits::.switch_cpus.data      3979832                       # number of overall hits
system.cpu.dcache.overall_hits::total         3979832                       # number of overall hits
system.cpu.dcache.demand_misses::.cpu.data            2                       # number of demand (read+write) misses
system.cpu.dcache.demand_misses::.switch_cpus.data     13855169                       # number of demand (read+write) misses
system.cpu.dcache.demand_misses::total       13855171                       # number of demand (read+write) misses
system.cpu.dcache.overall_misses::.cpu.data            2                       # number of overall misses
system.cpu.dcache.overall_misses::.switch_cpus.data     13855169                       # number of overall misses
system.cpu.dcache.overall_misses::total      13855171                       # number of overall misses
system.cpu.dcache.demand_miss_latency::.switch_cpus.data 872091162017                       # number of demand (read+write) miss cycles
system.cpu.dcache.demand_miss_latency::total 872091162017                       # number of demand (read+write) miss cycles
system.cpu.dcache.overall_miss_latency::.switch_cpus.data 872091162017                       # number of overall miss cycles
system.cpu.dcache.overall_miss_latency::total 872091162017                       # number of overall miss cycles
system.cpu.dcache.demand_accesses::.cpu.data            2                       # number of demand (read+write) accesses
system.cpu.dcache.demand_accesses::.switch_cpus.data     17835001                       # number of demand (read+write) accesses
system.cpu.dcache.demand_accesses::total     17835003                       # number of demand (read+write) accesses
system.cpu.dcache.overall_accesses::.cpu.data            2                       # number of overall (read+write) accesses
system.cpu.dcache.overall_accesses::.switch_cpus.data     17835001                       # number of overall (read+write) accesses
system.cpu.dcache.overall_accesses::total     17835003                       # number of overall (read+write) accesses
system.cpu.dcache.demand_miss_rate::.cpu.data            1                       # miss rate for demand accesses
system.cpu.dcache.demand_miss_rate::.switch_cpus.data     0.776853                       # miss rate for demand accesses
system.cpu.dcache.demand_miss_rate::total     0.776853                       # miss rate for demand accesses
system.cpu.dcache.overall_miss_rate::.cpu.data            1                       # miss rate for overall accesses
system.cpu.dcache.overall_miss_rate::.switch_cpus.data     0.776853                       # miss rate for overall accesses
system.cpu.dcache.overall_miss_rate::total     0.776853                       # miss rate for overall accesses
system.cpu.dcache.demand_avg_miss_latency::.switch_cpus.data 62943.379616                       # average overall miss latency
system.cpu.dcache.demand_avg_miss_latency::total 62943.370531                       # average overall miss latency
system.cpu.dcache.overall_avg_miss_latency::.switch_cpus.data 62943.379616                       # average overall miss latency
system.cpu.dcache.overall_avg_miss_latency::total 62943.370531                       # average overall miss latency
system.cpu.dcache.blocked_cycles::no_mshrs    162719918                       # number of cycles access was blocked
system.cpu.dcache.blocked_cycles::no_targets           45                       # number of cycles access was blocked
system.cpu.dcache.blocked::no_mshrs           6112534                       # number of cycles access was blocked
system.cpu.dcache.blocked::no_targets               3                       # number of cycles access was blocked
system.cpu.dcache.avg_blocked_cycles::no_mshrs    26.620697                       # average number of cycles each access was blocked
system.cpu.dcache.avg_blocked_cycles::no_targets           15                       # average number of cycles each access was blocked
system.cpu.dcache.writebacks::.writebacks      1105399                       # number of writebacks
system.cpu.dcache.writebacks::total           1105399                       # number of writebacks
system.cpu.dcache.demand_mshr_hits::.switch_cpus.data      7280526                       # number of demand (read+write) MSHR hits
system.cpu.dcache.demand_mshr_hits::total      7280526                       # number of demand (read+write) MSHR hits
system.cpu.dcache.overall_mshr_hits::.switch_cpus.data      7280526                       # number of overall MSHR hits
system.cpu.dcache.overall_mshr_hits::total      7280526                       # number of overall MSHR hits
system.cpu.dcache.demand_mshr_misses::.switch_cpus.data      6574643                       # number of demand (read+write) MSHR misses
system.cpu.dcache.demand_mshr_misses::total      6574643                       # number of demand (read+write) MSHR misses
system.cpu.dcache.overall_mshr_misses::.switch_cpus.data      6574643                       # number of overall MSHR misses
system.cpu.dcache.overall_mshr_misses::total      6574643                       # number of overall MSHR misses
system.cpu.dcache.demand_mshr_miss_latency::.switch_cpus.data 365794294104                       # number of demand (read+write) MSHR miss cycles
system.cpu.dcache.demand_mshr_miss_latency::total 365794294104                       # number of demand (read+write) MSHR miss cycles
system.cpu.dcache.overall_mshr_miss_latency::.switch_cpus.data 365794294104                       # number of overall MSHR miss cycles
system.cpu.dcache.overall_mshr_miss_latency::total 365794294104                       # number of overall MSHR miss cycles
system.cpu.dcache.demand_mshr_miss_rate::.switch_cpus.data     0.368637                       # mshr miss rate for demand accesses
system.cpu.dcache.demand_mshr_miss_rate::total     0.368637                       # mshr miss rate for demand accesses
system.cpu.dcache.overall_mshr_miss_rate::.switch_cpus.data     0.368637                       # mshr miss rate for overall accesses
system.cpu.dcache.overall_mshr_miss_rate::total     0.368637                       # mshr miss rate for overall accesses
system.cpu.dcache.demand_avg_mshr_miss_latency::.switch_cpus.data 55637.134078                       # average overall mshr miss latency
system.cpu.dcache.demand_avg_mshr_miss_latency::total 55637.134078                       # average overall mshr miss latency
system.cpu.dcache.overall_avg_mshr_miss_latency::.switch_cpus.data 55637.134078                       # average overall mshr miss latency
system.cpu.dcache.overall_avg_mshr_miss_latency::total 55637.134078                       # average overall mshr miss latency
system.cpu.dcache.replacements                6573617                       # number of replacements
system.cpu.dcache.ReadReq_hits::.switch_cpus.data      3583765                       # number of ReadReq hits
system.cpu.dcache.ReadReq_hits::total         3583765                       # number of ReadReq hits
system.cpu.dcache.ReadReq_misses::.cpu.data            2                       # number of ReadReq misses
system.cpu.dcache.ReadReq_misses::.switch_cpus.data     13844255                       # number of ReadReq misses
system.cpu.dcache.ReadReq_misses::total      13844257                       # number of ReadReq misses
system.cpu.dcache.ReadReq_miss_latency::.switch_cpus.data 871686365500                       # number of ReadReq miss cycles
system.cpu.dcache.ReadReq_miss_latency::total 871686365500                       # number of ReadReq miss cycles
system.cpu.dcache.ReadReq_accesses::.cpu.data            2                       # number of ReadReq accesses(hits+misses)
system.cpu.dcache.ReadReq_accesses::.switch_cpus.data     17428020                       # number of ReadReq accesses(hits+misses)
system.cpu.dcache.ReadReq_accesses::total     17428022                       # number of ReadReq accesses(hits+misses)
system.cpu.dcache.ReadReq_miss_rate::.cpu.data            1                       # miss rate for ReadReq accesses
system.cpu.dcache.ReadReq_miss_rate::.switch_cpus.data     0.794368                       # miss rate for ReadReq accesses
system.cpu.dcache.ReadReq_miss_rate::total     0.794368                       # miss rate for ReadReq accesses
system.cpu.dcache.ReadReq_avg_miss_latency::.switch_cpus.data 62963.761177                       # average ReadReq miss latency
system.cpu.dcache.ReadReq_avg_miss_latency::total 62963.752081                       # average ReadReq miss latency
system.cpu.dcache.ReadReq_mshr_hits::.switch_cpus.data      7280255                       # number of ReadReq MSHR hits
system.cpu.dcache.ReadReq_mshr_hits::total      7280255                       # number of ReadReq MSHR hits
system.cpu.dcache.ReadReq_mshr_misses::.switch_cpus.data      6564000                       # number of ReadReq MSHR misses
system.cpu.dcache.ReadReq_mshr_misses::total      6564000                       # number of ReadReq MSHR misses
system.cpu.dcache.ReadReq_mshr_miss_latency::.switch_cpus.data 365403812500                       # number of ReadReq MSHR miss cycles
system.cpu.dcache.ReadReq_mshr_miss_latency::total 365403812500                       # number of ReadReq MSHR miss cycles
system.cpu.dcache.ReadReq_mshr_miss_rate::.switch_cpus.data     0.376635                       # mshr miss rate for ReadReq accesses
system.cpu.dcache.ReadReq_mshr_miss_rate::total     0.376635                       # mshr miss rate for ReadReq accesses
system.cpu.dcache.ReadReq_avg_mshr_miss_latency::.switch_cpus.data 55667.856871                       # average ReadReq mshr miss latency
system.cpu.dcache.ReadReq_avg_mshr_miss_latency::total 55667.856871                       # average ReadReq mshr miss latency
system.cpu.dcache.WriteReq_hits::.switch_cpus.data       396067                       # number of WriteReq hits
system.cpu.dcache.WriteReq_hits::total         396067                       # number of WriteReq hits
system.cpu.dcache.WriteReq_misses::.switch_cpus.data        10914                       # number of WriteReq misses
system.cpu.dcache.WriteReq_misses::total        10914                       # number of WriteReq misses
system.cpu.dcache.WriteReq_miss_latency::.switch_cpus.data    404796517                       # number of WriteReq miss cycles
system.cpu.dcache.WriteReq_miss_latency::total    404796517                       # number of WriteReq miss cycles
system.cpu.dcache.WriteReq_accesses::.switch_cpus.data       406981                       # number of WriteReq accesses(hits+misses)
system.cpu.dcache.WriteReq_accesses::total       406981                       # number of WriteReq accesses(hits+misses)
system.cpu.dcache.WriteReq_miss_rate::.switch_cpus.data     0.026817                       # miss rate for WriteReq accesses
system.cpu.dcache.WriteReq_miss_rate::total     0.026817                       # miss rate for WriteReq accesses
system.cpu.dcache.WriteReq_avg_miss_latency::.switch_cpus.data 37089.657046                       # average WriteReq miss latency
system.cpu.dcache.WriteReq_avg_miss_latency::total 37089.657046                       # average WriteReq miss latency
system.cpu.dcache.WriteReq_mshr_hits::.switch_cpus.data          271                       # number of WriteReq MSHR hits
system.cpu.dcache.WriteReq_mshr_hits::total          271                       # number of WriteReq MSHR hits
system.cpu.dcache.WriteReq_mshr_misses::.switch_cpus.data        10643                       # number of WriteReq MSHR misses
system.cpu.dcache.WriteReq_mshr_misses::total        10643                       # number of WriteReq MSHR misses
system.cpu.dcache.WriteReq_mshr_miss_latency::.switch_cpus.data    390481604                       # number of WriteReq MSHR miss cycles
system.cpu.dcache.WriteReq_mshr_miss_latency::total    390481604                       # number of WriteReq MSHR miss cycles
system.cpu.dcache.WriteReq_mshr_miss_rate::.switch_cpus.data     0.026151                       # mshr miss rate for WriteReq accesses
system.cpu.dcache.WriteReq_mshr_miss_rate::total     0.026151                       # mshr miss rate for WriteReq accesses
system.cpu.dcache.WriteReq_avg_mshr_miss_latency::.switch_cpus.data 36689.054214                       # average WriteReq mshr miss latency
system.cpu.dcache.WriteReq_avg_mshr_miss_latency::total 36689.054214                       # average WriteReq mshr miss latency
system.cpu.dcache.tags.pwrStateResidencyTicks::UNDEFINED 190251160813000                       # Cumulative time (in ticks) in various power states
system.cpu.dcache.tags.tagsinuse             0.541512                       # Cycle average of tags in use
system.cpu.dcache.tags.total_refs            10554473                       # Total number of references to valid blocks.
system.cpu.dcache.tags.sampled_refs           6574641                       # Sample count of references to valid blocks.
system.cpu.dcache.tags.avg_refs              1.605331                       # Average number of references to valid blocks.
system.cpu.dcache.tags.warmup_cycle      190150534270000                       # Cycle when the warmup percentage was hit.
system.cpu.dcache.tags.occ_blocks::.cpu.data     0.000000                       # Average occupied blocks per requestor
system.cpu.dcache.tags.occ_blocks::.switch_cpus.data     0.541512                       # Average occupied blocks per requestor
system.cpu.dcache.tags.occ_percent::.cpu.data     0.000000                       # Average percentage of cache occupancy
system.cpu.dcache.tags.occ_percent::.switch_cpus.data     0.000529                       # Average percentage of cache occupancy
system.cpu.dcache.tags.occ_percent::total     0.000529                       # Average percentage of cache occupancy
system.cpu.dcache.tags.occ_task_id_blocks::1024         1024                       # Occupied blocks per task id
system.cpu.dcache.tags.age_task_id_blocks_1024::0          580                       # Occupied blocks per task id
system.cpu.dcache.tags.age_task_id_blocks_1024::1          444                       # Occupied blocks per task id
system.cpu.dcache.tags.occ_task_id_percent::1024            1                       # Percentage of cache occupancy per task id
system.cpu.dcache.tags.tag_accesses          42244647                       # Number of tag accesses
system.cpu.dcache.tags.data_accesses         42244647                       # Number of data accesses

---------- End Simulation Statistics   ----------
