
---------- Begin Simulation Statistics ----------
final_tick                               180555842854000                       # Number of ticks from beginning of simulation (restored from checkpoints and never reset)
host_inst_rate                                 726990                       # Simulator instruction rate (inst/s)
host_mem_usage                                 805808                       # Number of bytes of host memory used
host_op_rate                                  1390921                       # Simulator op (including micro ops) rate (op/s)
host_seconds                                     1.40                       # Real time elapsed on the host
host_tick_rate                              834769198                       # Simulator tick rate (ticks/s)
sim_freq                                 1000000000000                       # Frequency of simulated ticks
sim_insts                                     1017652                       # Number of instructions simulated
sim_ops                                       1947334                       # Number of ops (including micro ops) simulated
sim_seconds                                  0.001169                       # Number of seconds simulated
sim_ticks                                  1168734000                       # Number of ticks simulated
system.cpu.branchPred.BTBCorrect                    0                       # Number of correct BTB predictions (this stat may not work properly.
system.cpu.branchPred.BTBHitPct                   nan                       # BTB Hit Percentage
system.cpu.branchPred.BTBHits                       0                       # Number of BTB hits
system.cpu.branchPred.BTBLookups                    0                       # Number of BTB lookups
system.cpu.branchPred.RASInCorrect                  0                       # Number of incorrect RAS predictions.
system.cpu.branchPred.condIncorrect                 0                       # Number of conditional branches incorrect
system.cpu.branchPred.condPredicted                 3                       # Number of conditional branches predicted
system.cpu.branchPred.indirectHits                  0                       # Number of indirect target hits.
system.cpu.branchPred.indirectLookups               0                       # Number of indirect predictor lookups.
system.cpu.branchPred.indirectMisses                0                       # Number of indirect misses.
system.cpu.branchPred.lookups                       3                       # Number of BP lookups
system.cpu.branchPred.usedRAS                       0                       # Number of times the RAS was used to get a target.
system.cpu.branchPredindirectMispredicted            0                       # Number of mispredicted indirect branches.
system.cpu.cc_regfile_reads                        16                       # number of cc regfile reads
system.cpu.cc_regfile_writes                        6                       # number of cc regfile writes
system.cpu.commit.amos                              0                       # Number of atomic instructions committed
system.cpu.commit.branches                          0                       # Number of branches committed
system.cpu.commit.bw_lim_events                     0                       # number cycles where commit BW limit reached
system.cpu.commit.commitSquashedInsts              18                       # The number of squashed insts skipped by commit
system.cpu.commit.committedInsts                    1                       # Number of instructions committed
system.cpu.commit.committedOps                      1                       # Number of ops (including micro ops) committed
system.cpu.commit.committed_per_cycle::samples           34                       # Number of insts commited each cycle
system.cpu.commit.committed_per_cycle::mean     0.029412                       # Number of insts commited each cycle
system.cpu.commit.committed_per_cycle::stdev     0.171499                       # Number of insts commited each cycle
system.cpu.commit.committed_per_cycle::underflows            0      0.00%      0.00% # Number of insts commited each cycle
system.cpu.commit.committed_per_cycle::0           33     97.06%     97.06% # Number of insts commited each cycle
system.cpu.commit.committed_per_cycle::1            1      2.94%    100.00% # Number of insts commited each cycle
system.cpu.commit.committed_per_cycle::2            0      0.00%    100.00% # Number of insts commited each cycle
system.cpu.commit.committed_per_cycle::3            0      0.00%    100.00% # Number of insts commited each cycle
system.cpu.commit.committed_per_cycle::4            0      0.00%    100.00% # Number of insts commited each cycle
system.cpu.commit.committed_per_cycle::5            0      0.00%    100.00% # Number of insts commited each cycle
system.cpu.commit.committed_per_cycle::6            0      0.00%    100.00% # Number of insts commited each cycle
system.cpu.commit.committed_per_cycle::7            0      0.00%    100.00% # Number of insts commited each cycle
system.cpu.commit.committed_per_cycle::8            0      0.00%    100.00% # Number of insts commited each cycle
system.cpu.commit.committed_per_cycle::overflows            0      0.00%    100.00% # Number of insts commited each cycle
system.cpu.commit.committed_per_cycle::min_value            0                       # Number of insts commited each cycle
system.cpu.commit.committed_per_cycle::max_value            1                       # Number of insts commited each cycle
system.cpu.commit.committed_per_cycle::total           34                       # Number of insts commited each cycle
system.cpu.commit.fp_insts                          0                       # Number of committed floating point instructions.
system.cpu.commit.function_calls                    0                       # Number of function calls committed.
system.cpu.commit.int_insts                         1                       # Number of committed integer instructions.
system.cpu.commit.loads                             0                       # Number of loads committed
system.cpu.commit.membars                           0                       # Number of memory barriers committed
system.cpu.commit.op_class_0::No_OpClass            0      0.00%      0.00% # Class of committed instruction
system.cpu.commit.op_class_0::IntAlu                1    100.00%    100.00% # Class of committed instruction
system.cpu.commit.op_class_0::IntMult               0      0.00%    100.00% # Class of committed instruction
system.cpu.commit.op_class_0::IntDiv                0      0.00%    100.00% # Class of committed instruction
system.cpu.commit.op_class_0::FloatAdd              0      0.00%    100.00% # Class of committed instruction
system.cpu.commit.op_class_0::FloatCmp              0      0.00%    100.00% # Class of committed instruction
system.cpu.commit.op_class_0::FloatCvt              0      0.00%    100.00% # Class of committed instruction
system.cpu.commit.op_class_0::FloatMult             0      0.00%    100.00% # Class of committed instruction
system.cpu.commit.op_class_0::FloatMultAcc            0      0.00%    100.00% # Class of committed instruction
system.cpu.commit.op_class_0::FloatDiv              0      0.00%    100.00% # Class of committed instruction
system.cpu.commit.op_class_0::FloatMisc             0      0.00%    100.00% # Class of committed instruction
system.cpu.commit.op_class_0::FloatSqrt             0      0.00%    100.00% # Class of committed instruction
system.cpu.commit.op_class_0::SimdAdd               0      0.00%    100.00% # Class of committed instruction
system.cpu.commit.op_class_0::SimdAddAcc            0      0.00%    100.00% # Class of committed instruction
system.cpu.commit.op_class_0::SimdAlu               0      0.00%    100.00% # Class of committed instruction
system.cpu.commit.op_class_0::SimdCmp               0      0.00%    100.00% # Class of committed instruction
system.cpu.commit.op_class_0::SimdCvt               0      0.00%    100.00% # Class of committed instruction
system.cpu.commit.op_class_0::SimdMisc              0      0.00%    100.00% # Class of committed instruction
system.cpu.commit.op_class_0::SimdMult              0      0.00%    100.00% # Class of committed instruction
system.cpu.commit.op_class_0::SimdMultAcc            0      0.00%    100.00% # Class of committed instruction
system.cpu.commit.op_class_0::SimdShift             0      0.00%    100.00% # Class of committed instruction
system.cpu.commit.op_class_0::SimdShiftAcc            0      0.00%    100.00% # Class of committed instruction
system.cpu.commit.op_class_0::SimdDiv               0      0.00%    100.00% # Class of committed instruction
system.cpu.commit.op_class_0::SimdSqrt              0      0.00%    100.00% # Class of committed instruction
system.cpu.commit.op_class_0::SimdFloatAdd            0      0.00%    100.00% # Class of committed instruction
system.cpu.commit.op_class_0::SimdFloatAlu            0      0.00%    100.00% # Class of committed instruction
system.cpu.commit.op_class_0::SimdFloatCmp            0      0.00%    100.00% # Class of committed instruction
system.cpu.commit.op_class_0::SimdFloatCvt            0      0.00%    100.00% # Class of committed instruction
system.cpu.commit.op_class_0::SimdFloatDiv            0      0.00%    100.00% # Class of committed instruction
system.cpu.commit.op_class_0::SimdFloatMisc            0      0.00%    100.00% # Class of committed instruction
system.cpu.commit.op_class_0::SimdFloatMult            0      0.00%    100.00% # Class of committed instruction
system.cpu.commit.op_class_0::SimdFloatMultAcc            0      0.00%    100.00% # Class of committed instruction
system.cpu.commit.op_class_0::SimdFloatSqrt            0      0.00%    100.00% # Class of committed instruction
system.cpu.commit.op_class_0::SimdReduceAdd            0      0.00%    100.00% # Class of committed instruction
system.cpu.commit.op_class_0::SimdReduceAlu            0      0.00%    100.00% # Class of committed instruction
system.cpu.commit.op_class_0::SimdReduceCmp            0      0.00%    100.00% # Class of committed instruction
system.cpu.commit.op_class_0::SimdFloatReduceAdd            0      0.00%    100.00% # Class of committed instruction
system.cpu.commit.op_class_0::SimdFloatReduceCmp            0      0.00%    100.00% # Class of committed instruction
system.cpu.commit.op_class_0::SimdAes               0      0.00%    100.00% # Class of committed instruction
system.cpu.commit.op_class_0::SimdAesMix            0      0.00%    100.00% # Class of committed instruction
system.cpu.commit.op_class_0::SimdSha1Hash            0      0.00%    100.00% # Class of committed instruction
system.cpu.commit.op_class_0::SimdSha1Hash2            0      0.00%    100.00% # Class of committed instruction
system.cpu.commit.op_class_0::SimdSha256Hash            0      0.00%    100.00% # Class of committed instruction
system.cpu.commit.op_class_0::SimdSha256Hash2            0      0.00%    100.00% # Class of committed instruction
system.cpu.commit.op_class_0::SimdShaSigma2            0      0.00%    100.00% # Class of committed instruction
system.cpu.commit.op_class_0::SimdShaSigma3            0      0.00%    100.00% # Class of committed instruction
system.cpu.commit.op_class_0::SimdPredAlu            0      0.00%    100.00% # Class of committed instruction
system.cpu.commit.op_class_0::MemRead               0      0.00%    100.00% # Class of committed instruction
system.cpu.commit.op_class_0::MemWrite              0      0.00%    100.00% # Class of committed instruction
system.cpu.commit.op_class_0::FloatMemRead            0      0.00%    100.00% # Class of committed instruction
system.cpu.commit.op_class_0::FloatMemWrite            0      0.00%    100.00% # Class of committed instruction
system.cpu.commit.op_class_0::IprAccess             0      0.00%    100.00% # Class of committed instruction
system.cpu.commit.op_class_0::InstPrefetch            0      0.00%    100.00% # Class of committed instruction
system.cpu.commit.op_class_0::total                 1                       # Class of committed instruction
system.cpu.commit.refs                              0                       # Number of memory references committed
system.cpu.commit.swp_count                         0                       # Number of s/w prefetches committed
system.cpu.commit.vec_insts                         0                       # Number of committed Vector instructions.
system.cpu.committedInsts                           1                       # Number of Instructions Simulated
system.cpu.committedOps                             1                       # Number of Ops (including micro ops) Simulated
system.cpu.cpi                             191.000000                       # CPI: Cycles Per Instruction
system.cpu.cpi_total                       191.000000                       # CPI: Total CPI of All Threads
system.cpu.decode.BlockedCycles                     2                       # Number of cycles decode is blocked
system.cpu.decode.DecodedInsts                     19                       # Number of instructions handled by decode
system.cpu.decode.IdleCycles                       31                       # Number of cycles decode is idle
system.cpu.decode.SquashCycles                      1                       # Number of cycles decode is squashing
system.cpu.dtb.rdAccesses                           2                       # TLB accesses on read requests
system.cpu.dtb.rdMisses                             1                       # TLB misses on read requests
system.cpu.dtb.wrAccesses                           0                       # TLB accesses on write requests
system.cpu.dtb.wrMisses                             0                       # TLB misses on write requests
system.cpu.fetch.Branches                           3                       # Number of branches that fetch encountered
system.cpu.fetch.CacheLines                         2                       # Number of cache lines fetched
system.cpu.fetch.Cycles                             3                       # Number of cycles fetch has run and was not squashing or blocked
system.cpu.fetch.IcacheSquashes                     1                       # Number of outstanding Icache misses that were squashed
system.cpu.fetch.Insts                             10                       # Number of instructions fetch has processed
system.cpu.fetch.PendingDrainCycles                 7                       # Number of cycles fetch has spent waiting on pipes to drain
system.cpu.fetch.SquashCycles                       1                       # Number of cycles fetch has spent squashing
system.cpu.fetch.branchRate                  0.015707                       # Number of branch fetches per cycle
system.cpu.fetch.icacheStallCycles                 27                       # Number of cycles fetch is stalled on an Icache miss
system.cpu.fetch.rate                        0.052356                       # Number of inst fetches per cycle
system.cpu.fetch.rateDist::samples                 37                       # Number of instructions fetched each cycle (Total)
system.cpu.fetch.rateDist::mean              0.513514                       # Number of instructions fetched each cycle (Total)
system.cpu.fetch.rateDist::stdev             1.880036                       # Number of instructions fetched each cycle (Total)
system.cpu.fetch.rateDist::underflows               0      0.00%      0.00% # Number of instructions fetched each cycle (Total)
system.cpu.fetch.rateDist::0                       34     91.89%     91.89% # Number of instructions fetched each cycle (Total)
system.cpu.fetch.rateDist::1                        0      0.00%     91.89% # Number of instructions fetched each cycle (Total)
system.cpu.fetch.rateDist::2                        0      0.00%     91.89% # Number of instructions fetched each cycle (Total)
system.cpu.fetch.rateDist::3                        1      2.70%     94.59% # Number of instructions fetched each cycle (Total)
system.cpu.fetch.rateDist::4                        0      0.00%     94.59% # Number of instructions fetched each cycle (Total)
system.cpu.fetch.rateDist::5                        0      0.00%     94.59% # Number of instructions fetched each cycle (Total)
system.cpu.fetch.rateDist::6                        0      0.00%     94.59% # Number of instructions fetched each cycle (Total)
system.cpu.fetch.rateDist::7                        0      0.00%     94.59% # Number of instructions fetched each cycle (Total)
system.cpu.fetch.rateDist::8                        2      5.41%    100.00% # Number of instructions fetched each cycle (Total)
system.cpu.fetch.rateDist::overflows                0      0.00%    100.00% # Number of instructions fetched each cycle (Total)
system.cpu.fetch.rateDist::min_value                0                       # Number of instructions fetched each cycle (Total)
system.cpu.fetch.rateDist::max_value                8                       # Number of instructions fetched each cycle (Total)
system.cpu.fetch.rateDist::total                   37                       # Number of instructions fetched each cycle (Total)
system.cpu.fp_regfile_reads                        56                       # number of floating regfile reads
system.cpu.idleCycles                             154                       # Total number of cycles that the CPU has spent unscheduled due to idling
system.cpu.iew.branchMispredicts                    2                       # Number of branch mispredicts detected at execute
system.cpu.iew.exec_branches                        2                       # Number of branches executed
system.cpu.iew.exec_nop                             0                       # number of nop insts executed
system.cpu.iew.exec_rate                     0.083770                       # Inst execution rate
system.cpu.iew.exec_refs                            2                       # number of memory reference insts executed
system.cpu.iew.exec_stores                          0                       # Number of stores executed
system.cpu.iew.exec_swp                             0                       # number of swp insts executed
system.cpu.iew.iewBlockCycles                       2                       # Number of cycles IEW is blocking
system.cpu.iew.iewDispLoadInsts                     2                       # Number of dispatched load instructions
system.cpu.iew.iewDispNonSpecInsts                  0                       # Number of dispatched non-speculative instructions
system.cpu.iew.iewDispSquashedInsts                 0                       # Number of squashed instructions skipped by dispatch
system.cpu.iew.iewDispStoreInsts                    0                       # Number of dispatched store instructions
system.cpu.iew.iewDispatchedInsts                  19                       # Number of instructions dispatched to IQ
system.cpu.iew.iewExecLoadInsts                     2                       # Number of load instructions executed
system.cpu.iew.iewExecSquashedInsts                 0                       # Number of squashed instructions skipped in execute
system.cpu.iew.iewExecutedInsts                    16                       # Number of executed instructions
system.cpu.iew.iewIQFullEvents                      0                       # Number of times the IQ has become full, causing a stall
system.cpu.iew.iewIdleCycles                        0                       # Number of cycles IEW is idle
system.cpu.iew.iewLSQFullEvents                     0                       # Number of times the LSQ has become full, causing a stall
system.cpu.iew.iewSquashCycles                      1                       # Number of cycles IEW is squashing
system.cpu.iew.iewUnblockCycles                     0                       # Number of cycles IEW is unblocking
system.cpu.iew.lsq.thread0.blockedLoads             0                       # Number of blocked loads due to partial load-store forwarding
system.cpu.iew.lsq.thread0.cacheBlocked             0                       # Number of times an access to memory failed due to the cache being blocked
system.cpu.iew.lsq.thread0.forwLoads                0                       # Number of loads that had data forwarded from stores
system.cpu.iew.lsq.thread0.ignoredResponses            0                       # Number of memory responses ignored because the instruction is squashed
system.cpu.iew.lsq.thread0.invAddrLoads             0                       # Number of loads ignored due to an invalid address
system.cpu.iew.lsq.thread0.invAddrSwpfs             0                       # Number of software prefetches ignored due to an invalid address
system.cpu.iew.lsq.thread0.memOrderViolation            0                       # Number of memory ordering violations
system.cpu.iew.lsq.thread0.rescheduledLoads            0                       # Number of loads that were rescheduled
system.cpu.iew.lsq.thread0.squashedLoads            2                       # Number of loads squashed
system.cpu.iew.lsq.thread0.squashedStores            0                       # Number of stores squashed
system.cpu.iew.memOrderViolationEvents              0                       # Number of memory order violations
system.cpu.iew.predictedNotTakenIncorrect            2                       # Number of branches that were predicted not taken incorrectly
system.cpu.iew.predictedTakenIncorrect              0                       # Number of branches that were predicted taken incorrectly
system.cpu.iew.wb_consumers                        16                       # num instructions consuming a value
system.cpu.iew.wb_count                            14                       # cumulative count of insts written-back
system.cpu.iew.wb_fanout                     0.687500                       # average fanout of values written-back
system.cpu.iew.wb_producers                        11                       # num instructions producing a value
system.cpu.iew.wb_rate                       0.073298                       # insts written-back per cycle
system.cpu.iew.wb_sent                             15                       # cumulative count of insts sent to commit
system.cpu.int_regfile_reads                       60                       # number of integer regfile reads
system.cpu.int_regfile_writes                      12                       # number of integer regfile writes
system.cpu.ipc                               0.005236                       # IPC: Instructions Per Cycle
system.cpu.ipc_total                         0.005236                       # IPC: Total IPC of All Threads
system.cpu.iq.FU_type_0::No_OpClass                 0      0.00%      0.00% # Type of FU issued
system.cpu.iq.FU_type_0::IntAlu                    14     87.50%     87.50% # Type of FU issued
system.cpu.iq.FU_type_0::IntMult                    0      0.00%     87.50% # Type of FU issued
system.cpu.iq.FU_type_0::IntDiv                     0      0.00%     87.50% # Type of FU issued
system.cpu.iq.FU_type_0::FloatAdd                   0      0.00%     87.50% # Type of FU issued
system.cpu.iq.FU_type_0::FloatCmp                   0      0.00%     87.50% # Type of FU issued
system.cpu.iq.FU_type_0::FloatCvt                   0      0.00%     87.50% # Type of FU issued
system.cpu.iq.FU_type_0::FloatMult                  0      0.00%     87.50% # Type of FU issued
system.cpu.iq.FU_type_0::FloatMultAcc               0      0.00%     87.50% # Type of FU issued
system.cpu.iq.FU_type_0::FloatDiv                   0      0.00%     87.50% # Type of FU issued
system.cpu.iq.FU_type_0::FloatMisc                  0      0.00%     87.50% # Type of FU issued
system.cpu.iq.FU_type_0::FloatSqrt                  0      0.00%     87.50% # Type of FU issued
system.cpu.iq.FU_type_0::SimdAdd                    0      0.00%     87.50% # Type of FU issued
system.cpu.iq.FU_type_0::SimdAddAcc                 0      0.00%     87.50% # Type of FU issued
system.cpu.iq.FU_type_0::SimdAlu                    0      0.00%     87.50% # Type of FU issued
system.cpu.iq.FU_type_0::SimdCmp                    0      0.00%     87.50% # Type of FU issued
system.cpu.iq.FU_type_0::SimdCvt                    0      0.00%     87.50% # Type of FU issued
system.cpu.iq.FU_type_0::SimdMisc                   0      0.00%     87.50% # Type of FU issued
system.cpu.iq.FU_type_0::SimdMult                   0      0.00%     87.50% # Type of FU issued
system.cpu.iq.FU_type_0::SimdMultAcc                0      0.00%     87.50% # Type of FU issued
system.cpu.iq.FU_type_0::SimdShift                  0      0.00%     87.50% # Type of FU issued
system.cpu.iq.FU_type_0::SimdShiftAcc               0      0.00%     87.50% # Type of FU issued
system.cpu.iq.FU_type_0::SimdDiv                    0      0.00%     87.50% # Type of FU issued
system.cpu.iq.FU_type_0::SimdSqrt                   0      0.00%     87.50% # Type of FU issued
system.cpu.iq.FU_type_0::SimdFloatAdd               0      0.00%     87.50% # Type of FU issued
system.cpu.iq.FU_type_0::SimdFloatAlu               0      0.00%     87.50% # Type of FU issued
system.cpu.iq.FU_type_0::SimdFloatCmp               0      0.00%     87.50% # Type of FU issued
system.cpu.iq.FU_type_0::SimdFloatCvt               0      0.00%     87.50% # Type of FU issued
system.cpu.iq.FU_type_0::SimdFloatDiv               0      0.00%     87.50% # Type of FU issued
system.cpu.iq.FU_type_0::SimdFloatMisc              0      0.00%     87.50% # Type of FU issued
system.cpu.iq.FU_type_0::SimdFloatMult              0      0.00%     87.50% # Type of FU issued
system.cpu.iq.FU_type_0::SimdFloatMultAcc            0      0.00%     87.50% # Type of FU issued
system.cpu.iq.FU_type_0::SimdFloatSqrt              0      0.00%     87.50% # Type of FU issued
system.cpu.iq.FU_type_0::SimdReduceAdd              0      0.00%     87.50% # Type of FU issued
system.cpu.iq.FU_type_0::SimdReduceAlu              0      0.00%     87.50% # Type of FU issued
system.cpu.iq.FU_type_0::SimdReduceCmp              0      0.00%     87.50% # Type of FU issued
system.cpu.iq.FU_type_0::SimdFloatReduceAdd            0      0.00%     87.50% # Type of FU issued
system.cpu.iq.FU_type_0::SimdFloatReduceCmp            0      0.00%     87.50% # Type of FU issued
system.cpu.iq.FU_type_0::SimdAes                    0      0.00%     87.50% # Type of FU issued
system.cpu.iq.FU_type_0::SimdAesMix                 0      0.00%     87.50% # Type of FU issued
system.cpu.iq.FU_type_0::SimdSha1Hash               0      0.00%     87.50% # Type of FU issued
system.cpu.iq.FU_type_0::SimdSha1Hash2              0      0.00%     87.50% # Type of FU issued
system.cpu.iq.FU_type_0::SimdSha256Hash             0      0.00%     87.50% # Type of FU issued
system.cpu.iq.FU_type_0::SimdSha256Hash2            0      0.00%     87.50% # Type of FU issued
system.cpu.iq.FU_type_0::SimdShaSigma2              0      0.00%     87.50% # Type of FU issued
system.cpu.iq.FU_type_0::SimdShaSigma3              0      0.00%     87.50% # Type of FU issued
system.cpu.iq.FU_type_0::SimdPredAlu                0      0.00%     87.50% # Type of FU issued
system.cpu.iq.FU_type_0::MemRead                    2     12.50%    100.00% # Type of FU issued
system.cpu.iq.FU_type_0::MemWrite                   0      0.00%    100.00% # Type of FU issued
system.cpu.iq.FU_type_0::FloatMemRead               0      0.00%    100.00% # Type of FU issued
system.cpu.iq.FU_type_0::FloatMemWrite              0      0.00%    100.00% # Type of FU issued
system.cpu.iq.FU_type_0::IprAccess                  0      0.00%    100.00% # Type of FU issued
system.cpu.iq.FU_type_0::InstPrefetch               0      0.00%    100.00% # Type of FU issued
system.cpu.iq.FU_type_0::total                     16                       # Type of FU issued
system.cpu.iq.fp_alu_accesses                       0                       # Number of floating point alu accesses
system.cpu.iq.fp_inst_queue_reads                   0                       # Number of floating instruction queue reads
system.cpu.iq.fp_inst_queue_wakeup_accesses            0                       # Number of floating instruction queue wakeup accesses
system.cpu.iq.fp_inst_queue_writes                  0                       # Number of floating instruction queue writes
system.cpu.iq.fu_busy_cnt                           0                       # FU busy when requested
system.cpu.iq.fu_busy_rate                          0                       # FU busy rate (busy events/executed inst)
system.cpu.iq.fu_full::No_OpClass                   0                       # attempts to use FU when none available
system.cpu.iq.fu_full::IntAlu                       0                       # attempts to use FU when none available
system.cpu.iq.fu_full::IntMult                      0                       # attempts to use FU when none available
system.cpu.iq.fu_full::IntDiv                       0                       # attempts to use FU when none available
system.cpu.iq.fu_full::FloatAdd                     0                       # attempts to use FU when none available
system.cpu.iq.fu_full::FloatCmp                     0                       # attempts to use FU when none available
system.cpu.iq.fu_full::FloatCvt                     0                       # attempts to use FU when none available
system.cpu.iq.fu_full::FloatMult                    0                       # attempts to use FU when none available
system.cpu.iq.fu_full::FloatMultAcc                 0                       # attempts to use FU when none available
system.cpu.iq.fu_full::FloatDiv                     0                       # attempts to use FU when none available
system.cpu.iq.fu_full::FloatMisc                    0                       # attempts to use FU when none available
system.cpu.iq.fu_full::FloatSqrt                    0                       # attempts to use FU when none available
system.cpu.iq.fu_full::SimdAdd                      0                       # attempts to use FU when none available
system.cpu.iq.fu_full::SimdAddAcc                   0                       # attempts to use FU when none available
system.cpu.iq.fu_full::SimdAlu                      0                       # attempts to use FU when none available
system.cpu.iq.fu_full::SimdCmp                      0                       # attempts to use FU when none available
system.cpu.iq.fu_full::SimdCvt                      0                       # attempts to use FU when none available
system.cpu.iq.fu_full::SimdMisc                     0                       # attempts to use FU when none available
system.cpu.iq.fu_full::SimdMult                     0                       # attempts to use FU when none available
system.cpu.iq.fu_full::SimdMultAcc                  0                       # attempts to use FU when none available
system.cpu.iq.fu_full::SimdShift                    0                       # attempts to use FU when none available
system.cpu.iq.fu_full::SimdShiftAcc                 0                       # attempts to use FU when none available
system.cpu.iq.fu_full::SimdDiv                      0                       # attempts to use FU when none available
system.cpu.iq.fu_full::SimdSqrt                     0                       # attempts to use FU when none available
system.cpu.iq.fu_full::SimdFloatAdd                 0                       # attempts to use FU when none available
system.cpu.iq.fu_full::SimdFloatAlu                 0                       # attempts to use FU when none available
system.cpu.iq.fu_full::SimdFloatCmp                 0                       # attempts to use FU when none available
system.cpu.iq.fu_full::SimdFloatCvt                 0                       # attempts to use FU when none available
system.cpu.iq.fu_full::SimdFloatDiv                 0                       # attempts to use FU when none available
system.cpu.iq.fu_full::SimdFloatMisc                0                       # attempts to use FU when none available
system.cpu.iq.fu_full::SimdFloatMult                0                       # attempts to use FU when none available
system.cpu.iq.fu_full::SimdFloatMultAcc             0                       # attempts to use FU when none available
system.cpu.iq.fu_full::SimdFloatSqrt                0                       # attempts to use FU when none available
system.cpu.iq.fu_full::SimdReduceAdd                0                       # attempts to use FU when none available
system.cpu.iq.fu_full::SimdReduceAlu                0                       # attempts to use FU when none available
system.cpu.iq.fu_full::SimdReduceCmp                0                       # attempts to use FU when none available
system.cpu.iq.fu_full::SimdFloatReduceAdd            0                       # attempts to use FU when none available
system.cpu.iq.fu_full::SimdFloatReduceCmp            0                       # attempts to use FU when none available
system.cpu.iq.fu_full::SimdAes                      0                       # attempts to use FU when none available
system.cpu.iq.fu_full::SimdAesMix                   0                       # attempts to use FU when none available
system.cpu.iq.fu_full::SimdSha1Hash                 0                       # attempts to use FU when none available
system.cpu.iq.fu_full::SimdSha1Hash2                0                       # attempts to use FU when none available
system.cpu.iq.fu_full::SimdSha256Hash               0                       # attempts to use FU when none available
system.cpu.iq.fu_full::SimdSha256Hash2              0                       # attempts to use FU when none available
system.cpu.iq.fu_full::SimdShaSigma2                0                       # attempts to use FU when none available
system.cpu.iq.fu_full::SimdShaSigma3                0                       # attempts to use FU when none available
system.cpu.iq.fu_full::SimdPredAlu                  0                       # attempts to use FU when none available
system.cpu.iq.fu_full::MemRead                      0                       # attempts to use FU when none available
system.cpu.iq.fu_full::MemWrite                     0                       # attempts to use FU when none available
system.cpu.iq.fu_full::FloatMemRead                 0                       # attempts to use FU when none available
system.cpu.iq.fu_full::FloatMemWrite                0                       # attempts to use FU when none available
system.cpu.iq.fu_full::IprAccess                    0                       # attempts to use FU when none available
system.cpu.iq.fu_full::InstPrefetch                 0                       # attempts to use FU when none available
system.cpu.iq.int_alu_accesses                     16                       # Number of integer alu accesses
system.cpu.iq.int_inst_queue_reads                 69                       # Number of integer instruction queue reads
system.cpu.iq.int_inst_queue_wakeup_accesses           14                       # Number of integer instruction queue wakeup accesses
system.cpu.iq.int_inst_queue_writes                37                       # Number of integer instruction queue writes
system.cpu.iq.iqInstsAdded                         19                       # Number of instructions added to the IQ (excludes non-spec)
system.cpu.iq.iqInstsIssued                        16                       # Number of instructions issued
system.cpu.iq.iqSquashedInstsExamined              18                       # Number of squashed instructions iterated over during squash; mainly for profiling
system.cpu.iq.iqSquashedOperandsExamined           20                       # Number of squashed operands that are examined and possibly removed from graph
system.cpu.iq.issued_per_cycle::samples            37                       # Number of insts issued each cycle
system.cpu.iq.issued_per_cycle::mean         0.432432                       # Number of insts issued each cycle
system.cpu.iq.issued_per_cycle::stdev        1.405160                       # Number of insts issued each cycle
system.cpu.iq.issued_per_cycle::underflows            0      0.00%      0.00% # Number of insts issued each cycle
system.cpu.iq.issued_per_cycle::0                  33     89.19%     89.19% # Number of insts issued each cycle
system.cpu.iq.issued_per_cycle::1                   1      2.70%     91.89% # Number of insts issued each cycle
system.cpu.iq.issued_per_cycle::2                   0      0.00%     91.89% # Number of insts issued each cycle
system.cpu.iq.issued_per_cycle::3                   0      0.00%     91.89% # Number of insts issued each cycle
system.cpu.iq.issued_per_cycle::4                   1      2.70%     94.59% # Number of insts issued each cycle
system.cpu.iq.issued_per_cycle::5                   1      2.70%     97.30% # Number of insts issued each cycle
system.cpu.iq.issued_per_cycle::6                   1      2.70%    100.00% # Number of insts issued each cycle
system.cpu.iq.issued_per_cycle::7                   0      0.00%    100.00% # Number of insts issued each cycle
system.cpu.iq.issued_per_cycle::8                   0      0.00%    100.00% # Number of insts issued each cycle
system.cpu.iq.issued_per_cycle::overflows            0      0.00%    100.00% # Number of insts issued each cycle
system.cpu.iq.issued_per_cycle::min_value            0                       # Number of insts issued each cycle
system.cpu.iq.issued_per_cycle::max_value            6                       # Number of insts issued each cycle
system.cpu.iq.issued_per_cycle::total              37                       # Number of insts issued each cycle
system.cpu.iq.rate                           0.083770                       # Inst issue rate
system.cpu.iq.vec_alu_accesses                      0                       # Number of vector alu accesses
system.cpu.iq.vec_inst_queue_reads                  0                       # Number of vector instruction queue reads
system.cpu.iq.vec_inst_queue_wakeup_accesses            0                       # Number of vector instruction queue wakeup accesses
system.cpu.iq.vec_inst_queue_writes                 0                       # Number of vector instruction queue writes
system.cpu.itb.rdAccesses                           0                       # TLB accesses on read requests
system.cpu.itb.rdMisses                             0                       # TLB misses on read requests
system.cpu.itb.wrAccesses                           2                       # TLB accesses on write requests
system.cpu.itb.wrMisses                             0                       # TLB misses on write requests
system.cpu.memDep0.conflictingLoads                 0                       # Number of conflicting loads.
system.cpu.memDep0.conflictingStores                0                       # Number of conflicting stores.
system.cpu.memDep0.insertedLoads                    2                       # Number of loads inserted to the mem dependence unit.
system.cpu.memDep0.insertedStores                   0                       # Number of stores inserted to the mem dependence unit.
system.cpu.misc_regfile_reads                       8                       # number of misc regfile reads
system.cpu.numCycles                              191                       # number of cpu cycles simulated
system.cpu.numWorkItemsCompleted                    0                       # number of work items this cpu completed
system.cpu.numWorkItemsStarted                      0                       # number of work items this cpu started
system.cpu.rename.BlockCycles                       2                       # Number of cycles rename is blocking
system.cpu.rename.CommittedMaps                     1                       # Number of HB maps that are committed
system.cpu.rename.IdleCycles                       31                       # Number of cycles rename is idle
system.cpu.rename.RenameLookups                    54                       # Number of register rename lookups that rename has made
system.cpu.rename.RenamedInsts                     19                       # Number of instructions processed by rename
system.cpu.rename.RenamedOperands                  24                       # Number of destination operands rename has renamed
system.cpu.rename.RunCycles                         0                       # Number of cycles rename is running
system.cpu.rename.SquashCycles                      1                       # Number of cycles rename is squashing
system.cpu.rename.UndoneMaps                       23                       # Number of HB maps that are undone due to squashing
system.cpu.rename.int_rename_lookups               30                       # Number of integer rename lookups
system.cpu.rename.serializeStallCycles              0                       # count of cycles rename stalled for serializing inst
system.cpu.rename.serializingInsts                  0                       # count of serializing insts renamed
system.cpu.rename.skidInsts                         0                       # count of insts added to the skid buffer
system.cpu.rename.tempSerializingInsts              0                       # count of temporary serializing insts renamed
system.cpu.rob.rob_reads                           52                       # The number of ROB reads
system.cpu.rob.rob_writes                          41                       # The number of ROB writes
system.cpu.timesIdled                               2                       # Number of times that the entire CPU went into an idle state and unscheduled itself
system.cpu.workload.numSyscalls                     4                       # Number of system calls
system.membus.snoop_filter.hit_multi_requests            0                       # Number of requests hitting in the snoop filter with multiple (>1) holders of the requested data.
system.membus.snoop_filter.hit_multi_snoops            0                       # Number of snoops hitting in the snoop filter with multiple (>1) holders of the requested data.
system.membus.snoop_filter.hit_single_requests            0                       # Number of requests hitting in the snoop filter with a single holder of the requested data.
system.membus.snoop_filter.hit_single_snoops            0                       # Number of snoops hitting in the snoop filter with a single holder of the requested data.
system.membus.snoop_filter.tot_requests           704                       # Total number of requests made to the snoop filter.
system.membus.snoop_filter.tot_snoops               0                       # Total number of snoops made to the snoop filter.
system.switch_cpus.Branches                    231480                       # Number of branches fetched
system.switch_cpus.committedInsts             1017651                       # Number of instructions committed
system.switch_cpus.committedOps               1947333                       # Number of ops (including micro ops) committed
system.switch_cpus.dtb.rdAccesses              222330                       # TLB accesses on read requests
system.switch_cpus.dtb.rdMisses                    34                       # TLB misses on read requests
system.switch_cpus.dtb.wrAccesses              134846                       # TLB accesses on write requests
system.switch_cpus.dtb.wrMisses                     4                       # TLB misses on write requests
system.switch_cpus.idle_fraction             0.006896                       # Percentage of idle cycles
system.switch_cpus.itb.rdAccesses                   0                       # TLB accesses on read requests
system.switch_cpus.itb.rdMisses                     0                       # TLB misses on read requests
system.switch_cpus.itb.wrAccesses             1391666                       # TLB accesses on write requests
system.switch_cpus.itb.wrMisses                    41                       # TLB misses on write requests
system.switch_cpus.not_idle_fraction         0.993104                       # Percentage of non-idle cycles
system.switch_cpus.numCycles                  2321348                       # number of cpu cycles simulated
system.switch_cpus.numWorkItemsCompleted            0                       # number of work items this cpu completed
system.switch_cpus.numWorkItemsStarted              0                       # number of work items this cpu started
system.switch_cpus.num_busy_cycles       2305339.167207                       # Number of busy cycles
system.switch_cpus.num_cc_register_reads      1277094                       # number of times the CC registers were read
system.switch_cpus.num_cc_register_writes       623808                       # number of times the CC registers were written
system.switch_cpus.num_conditional_control_insts       182672                       # number of instructions that are conditional controls
system.switch_cpus.num_fp_alu_accesses          53629                       # Number of float alu accesses
system.switch_cpus.num_fp_insts                 53629                       # number of float instructions
system.switch_cpus.num_fp_register_reads        71195                       # number of times the floating registers were read
system.switch_cpus.num_fp_register_writes        42317                       # number of times the floating registers were written
system.switch_cpus.num_func_calls               19953                       # number of times a function call or return occured
system.switch_cpus.num_idle_cycles       16008.832793                       # Number of idle cycles
system.switch_cpus.num_int_alu_accesses       1911632                       # Number of integer alu accesses
system.switch_cpus.num_int_insts              1911632                       # number of integer instructions
system.switch_cpus.num_int_register_reads      3776551                       # number of times the integer registers were read
system.switch_cpus.num_int_register_writes      1577557                       # number of times the integer registers were written
system.switch_cpus.num_load_insts              221028                       # Number of load instructions
system.switch_cpus.num_mem_refs                355852                       # number of memory refs
system.switch_cpus.num_store_insts             134824                       # Number of store instructions
system.switch_cpus.num_vec_alu_accesses             0                       # Number of vector alu accesses
system.switch_cpus.num_vec_insts                    0                       # number of vector instructions
system.switch_cpus.num_vec_register_reads            0                       # number of times the vector registers were read
system.switch_cpus.num_vec_register_writes            0                       # number of times the vector registers were written
system.switch_cpus.op_class::No_OpClass          9975      0.51%      0.51% # Class of executed instruction
system.switch_cpus.op_class::IntAlu           1526711     78.39%     78.90% # Class of executed instruction
system.switch_cpus.op_class::IntMult             1745      0.09%     78.99% # Class of executed instruction
system.switch_cpus.op_class::IntDiv             20082      1.03%     80.02% # Class of executed instruction
system.switch_cpus.op_class::FloatAdd            3617      0.19%     80.20% # Class of executed instruction
system.switch_cpus.op_class::FloatCmp               0      0.00%     80.20% # Class of executed instruction
system.switch_cpus.op_class::FloatCvt               0      0.00%     80.20% # Class of executed instruction
system.switch_cpus.op_class::FloatMult              0      0.00%     80.20% # Class of executed instruction
system.switch_cpus.op_class::FloatMultAcc            0      0.00%     80.20% # Class of executed instruction
system.switch_cpus.op_class::FloatDiv               0      0.00%     80.20% # Class of executed instruction
system.switch_cpus.op_class::FloatMisc              0      0.00%     80.20% # Class of executed instruction
system.switch_cpus.op_class::FloatSqrt              0      0.00%     80.20% # Class of executed instruction
system.switch_cpus.op_class::SimdAdd                0      0.00%     80.20% # Class of executed instruction
system.switch_cpus.op_class::SimdAddAcc             0      0.00%     80.20% # Class of executed instruction
system.switch_cpus.op_class::SimdAlu             5130      0.26%     80.47% # Class of executed instruction
system.switch_cpus.op_class::SimdCmp             3660      0.19%     80.66% # Class of executed instruction
system.switch_cpus.op_class::SimdCvt            10636      0.55%     81.20% # Class of executed instruction
system.switch_cpus.op_class::SimdMisc            9679      0.50%     81.70% # Class of executed instruction
system.switch_cpus.op_class::SimdMult               0      0.00%     81.70% # Class of executed instruction
system.switch_cpus.op_class::SimdMultAcc            0      0.00%     81.70% # Class of executed instruction
system.switch_cpus.op_class::SimdShift              0      0.00%     81.70% # Class of executed instruction
system.switch_cpus.op_class::SimdShiftAcc            0      0.00%     81.70% # Class of executed instruction
system.switch_cpus.op_class::SimdDiv                0      0.00%     81.70% # Class of executed instruction
system.switch_cpus.op_class::SimdSqrt               0      0.00%     81.70% # Class of executed instruction
system.switch_cpus.op_class::SimdFloatAdd          598      0.03%     81.73% # Class of executed instruction
system.switch_cpus.op_class::SimdFloatAlu            0      0.00%     81.73% # Class of executed instruction
system.switch_cpus.op_class::SimdFloatCmp            0      0.00%     81.73% # Class of executed instruction
system.switch_cpus.op_class::SimdFloatCvt            0      0.00%     81.73% # Class of executed instruction
system.switch_cpus.op_class::SimdFloatDiv            0      0.00%     81.73% # Class of executed instruction
system.switch_cpus.op_class::SimdFloatMisc            0      0.00%     81.73% # Class of executed instruction
system.switch_cpus.op_class::SimdFloatMult            0      0.00%     81.73% # Class of executed instruction
system.switch_cpus.op_class::SimdFloatMultAcc            0      0.00%     81.73% # Class of executed instruction
system.switch_cpus.op_class::SimdFloatSqrt            0      0.00%     81.73% # Class of executed instruction
system.switch_cpus.op_class::SimdReduceAdd            0      0.00%     81.73% # Class of executed instruction
system.switch_cpus.op_class::SimdReduceAlu            0      0.00%     81.73% # Class of executed instruction
system.switch_cpus.op_class::SimdReduceCmp            0      0.00%     81.73% # Class of executed instruction
system.switch_cpus.op_class::SimdFloatReduceAdd            0      0.00%     81.73% # Class of executed instruction
system.switch_cpus.op_class::SimdFloatReduceCmp            0      0.00%     81.73% # Class of executed instruction
system.switch_cpus.op_class::SimdAes                0      0.00%     81.73% # Class of executed instruction
system.switch_cpus.op_class::SimdAesMix             0      0.00%     81.73% # Class of executed instruction
system.switch_cpus.op_class::SimdSha1Hash            0      0.00%     81.73% # Class of executed instruction
system.switch_cpus.op_class::SimdSha1Hash2            0      0.00%     81.73% # Class of executed instruction
system.switch_cpus.op_class::SimdSha256Hash            0      0.00%     81.73% # Class of executed instruction
system.switch_cpus.op_class::SimdSha256Hash2            0      0.00%     81.73% # Class of executed instruction
system.switch_cpus.op_class::SimdShaSigma2            0      0.00%     81.73% # Class of executed instruction
system.switch_cpus.op_class::SimdShaSigma3            0      0.00%     81.73% # Class of executed instruction
system.switch_cpus.op_class::SimdPredAlu            0      0.00%     81.73% # Class of executed instruction
system.switch_cpus.op_class::MemRead           204986     10.52%     92.25% # Class of executed instruction
system.switch_cpus.op_class::MemWrite          130902      6.72%     98.97% # Class of executed instruction
system.switch_cpus.op_class::FloatMemRead        16042      0.82%     99.80% # Class of executed instruction
system.switch_cpus.op_class::FloatMemWrite         3922      0.20%    100.00% # Class of executed instruction
system.switch_cpus.op_class::IprAccess              0      0.00%    100.00% # Class of executed instruction
system.switch_cpus.op_class::InstPrefetch            0      0.00%    100.00% # Class of executed instruction
system.switch_cpus.op_class::total            1947685                       # Class of executed instruction
system.tol2bus.snoop_filter.hit_multi_requests            0                       # Number of requests hitting in the snoop filter with multiple (>1) holders of the requested data.
system.tol2bus.snoop_filter.hit_multi_snoops            0                       # Number of snoops hitting in the snoop filter with multiple (>1) holders of the requested data.
system.tol2bus.snoop_filter.hit_single_requests         6648                       # Number of requests hitting in the snoop filter with a single holder of the requested data.
system.tol2bus.snoop_filter.hit_single_snoops            0                       # Number of snoops hitting in the snoop filter with a single holder of the requested data.
system.tol2bus.snoop_filter.tot_requests        13909                       # Total number of requests made to the snoop filter.
system.tol2bus.snoop_filter.tot_snoops              0                       # Total number of snoops made to the snoop filter.
system.membus.pwrStateResidencyTicks::UNDEFINED 180555842854000                       # Cumulative time (in ticks) in various power states
system.membus.trans_dist::ReadResp                641                       # Transaction distribution
system.membus.trans_dist::ReadExReq                63                       # Transaction distribution
system.membus.trans_dist::ReadExResp               63                       # Transaction distribution
system.membus.trans_dist::ReadSharedReq           641                       # Transaction distribution
system.membus.pkt_count_system.l2.mem_side::system.mem_ctrls.port         1408                       # Packet count per connected master and slave (bytes)
system.membus.pkt_count_system.l2.mem_side::total         1408                       # Packet count per connected master and slave (bytes)
system.membus.pkt_count::total                   1408                       # Packet count per connected master and slave (bytes)
system.membus.pkt_size_system.l2.mem_side::system.mem_ctrls.port        45056                       # Cumulative packet size per connected master and slave (bytes)
system.membus.pkt_size_system.l2.mem_side::total        45056                       # Cumulative packet size per connected master and slave (bytes)
system.membus.pkt_size::total                   45056                       # Cumulative packet size per connected master and slave (bytes)
system.membus.snoops                                0                       # Total snoops (count)
system.membus.snoopTraffic                          0                       # Total snoop traffic (bytes)
system.membus.snoop_fanout::samples               704                       # Request fanout histogram
system.membus.snoop_fanout::mean                    0                       # Request fanout histogram
system.membus.snoop_fanout::stdev                   0                       # Request fanout histogram
system.membus.snoop_fanout::underflows              0      0.00%      0.00% # Request fanout histogram
system.membus.snoop_fanout::0                     704    100.00%    100.00% # Request fanout histogram
system.membus.snoop_fanout::1                       0      0.00%    100.00% # Request fanout histogram
system.membus.snoop_fanout::overflows               0      0.00%    100.00% # Request fanout histogram
system.membus.snoop_fanout::min_value               0                       # Request fanout histogram
system.membus.snoop_fanout::max_value               0                       # Request fanout histogram
system.membus.snoop_fanout::total                 704                       # Request fanout histogram
system.membus.reqLayer2.occupancy                3500                       # Layer occupancy (ticks)
system.membus.reqLayer2.utilization               0.0                       # Layer utilization (%)
system.membus.respLayer1.occupancy              16500                       # Layer occupancy (ticks)
system.membus.respLayer1.utilization              0.0                       # Layer utilization (%)
system.switch_cpus.numPwrStateTransitions            1                       # Number of power state transitions
system.switch_cpus.pwrStateResidencyTicks::UNDEFINED 180554674120000                       # Cumulative time (in ticks) in various power states
system.switch_cpus.pwrStateResidencyTicks::OFF   1168734000                       # Cumulative time (in ticks) in various power states
system.switch_cpus.dtb.walker.pwrStateResidencyTicks::UNDEFINED 180555842854000                       # Cumulative time (in ticks) in various power states
system.switch_cpus.itb.walker.pwrStateResidencyTicks::UNDEFINED 180555842854000                       # Cumulative time (in ticks) in various power states
system.tol2bus.pwrStateResidencyTicks::UNDEFINED 180555842854000                       # Cumulative time (in ticks) in various power states
system.tol2bus.trans_dist::ReadResp              7187                       # Transaction distribution
system.tol2bus.trans_dist::WritebackDirty           12                       # Transaction distribution
system.tol2bus.trans_dist::WritebackClean         6610                       # Transaction distribution
system.tol2bus.trans_dist::CleanEvict              26                       # Transaction distribution
system.tol2bus.trans_dist::ReadExReq               74                       # Transaction distribution
system.tol2bus.trans_dist::ReadExResp              74                       # Transaction distribution
system.tol2bus.trans_dist::ReadCleanReq          6948                       # Transaction distribution
system.tol2bus.trans_dist::ReadSharedReq          239                       # Transaction distribution
system.tol2bus.pkt_count_system.cpu.icache.mem_side::system.l2.cpu_side        20506                       # Packet count per connected master and slave (bytes)
system.tol2bus.pkt_count_system.cpu.dcache.mem_side::system.l2.cpu_side          664                       # Packet count per connected master and slave (bytes)
system.tol2bus.pkt_count::total                 21170                       # Packet count per connected master and slave (bytes)
system.tol2bus.pkt_size_system.cpu.icache.mem_side::system.l2.cpu_side       867712                       # Cumulative packet size per connected master and slave (bytes)
system.tol2bus.pkt_size_system.cpu.dcache.mem_side::system.l2.cpu_side        20800                       # Cumulative packet size per connected master and slave (bytes)
system.tol2bus.pkt_size::total                 888512                       # Cumulative packet size per connected master and slave (bytes)
system.tol2bus.snoops                               0                       # Total snoops (count)
system.tol2bus.snoopTraffic                         0                       # Total snoop traffic (bytes)
system.tol2bus.snoop_fanout::samples             7261                       # Request fanout histogram
system.tol2bus.snoop_fanout::mean                   0                       # Request fanout histogram
system.tol2bus.snoop_fanout::stdev                  0                       # Request fanout histogram
system.tol2bus.snoop_fanout::underflows             0      0.00%      0.00% # Request fanout histogram
system.tol2bus.snoop_fanout::0                   7261    100.00%    100.00% # Request fanout histogram
system.tol2bus.snoop_fanout::1                      0      0.00%    100.00% # Request fanout histogram
system.tol2bus.snoop_fanout::2                      0      0.00%    100.00% # Request fanout histogram
system.tol2bus.snoop_fanout::3                      0      0.00%    100.00% # Request fanout histogram
system.tol2bus.snoop_fanout::4                      0      0.00%    100.00% # Request fanout histogram
system.tol2bus.snoop_fanout::overflows              0      0.00%    100.00% # Request fanout histogram
system.tol2bus.snoop_fanout::min_value              0                       # Request fanout histogram
system.tol2bus.snoop_fanout::max_value              0                       # Request fanout histogram
system.tol2bus.snoop_fanout::total               7261                       # Request fanout histogram
system.tol2bus.reqLayer0.occupancy               1500                       # Layer occupancy (ticks)
system.tol2bus.reqLayer0.utilization              0.0                       # Layer utilization (%)
system.tol2bus.respLayer1.occupancy              1500                       # Layer occupancy (ticks)
system.tol2bus.respLayer1.utilization             0.0                       # Layer utilization (%)
system.tol2bus.respLayer0.occupancy              3000                       # Layer occupancy (ticks)
system.tol2bus.respLayer0.utilization             0.0                       # Layer utilization (%)
system.voltage_domain.voltage                       1                       # Voltage in Volts
system.clk_domain.clock                          1000                       # Clock period in ticks
system.l2.pwrStateResidencyTicks::UNDEFINED 180555842854000                       # Cumulative time (in ticks) in various power states
system.l2.demand_hits::.switch_cpus.inst         6538                       # number of demand (read+write) hits
system.l2.demand_hits::.switch_cpus.data           19                       # number of demand (read+write) hits
system.l2.demand_hits::total                     6557                       # number of demand (read+write) hits
system.l2.overall_hits::.switch_cpus.inst         6538                       # number of overall hits
system.l2.overall_hits::.switch_cpus.data           19                       # number of overall hits
system.l2.overall_hits::total                    6557                       # number of overall hits
system.l2.demand_misses::.cpu.inst                  2                       # number of demand (read+write) misses
system.l2.demand_misses::.cpu.data                  1                       # number of demand (read+write) misses
system.l2.demand_misses::.switch_cpus.inst          408                       # number of demand (read+write) misses
system.l2.demand_misses::.switch_cpus.data          293                       # number of demand (read+write) misses
system.l2.demand_misses::total                    704                       # number of demand (read+write) misses
system.l2.overall_misses::.cpu.inst                 2                       # number of overall misses
system.l2.overall_misses::.cpu.data                 1                       # number of overall misses
system.l2.overall_misses::.switch_cpus.inst          408                       # number of overall misses
system.l2.overall_misses::.switch_cpus.data          293                       # number of overall misses
system.l2.overall_misses::total                   704                       # number of overall misses
system.l2.demand_miss_latency::.cpu.inst       155000                       # number of demand (read+write) miss cycles
system.l2.demand_miss_latency::.cpu.data        84000                       # number of demand (read+write) miss cycles
system.l2.demand_miss_latency::total           239000                       # number of demand (read+write) miss cycles
system.l2.overall_miss_latency::.cpu.inst       155000                       # number of overall miss cycles
system.l2.overall_miss_latency::.cpu.data        84000                       # number of overall miss cycles
system.l2.overall_miss_latency::total          239000                       # number of overall miss cycles
system.l2.demand_accesses::.cpu.inst                2                       # number of demand (read+write) accesses
system.l2.demand_accesses::.cpu.data                1                       # number of demand (read+write) accesses
system.l2.demand_accesses::.switch_cpus.inst         6946                       # number of demand (read+write) accesses
system.l2.demand_accesses::.switch_cpus.data          312                       # number of demand (read+write) accesses
system.l2.demand_accesses::total                 7261                       # number of demand (read+write) accesses
system.l2.overall_accesses::.cpu.inst               2                       # number of overall (read+write) accesses
system.l2.overall_accesses::.cpu.data               1                       # number of overall (read+write) accesses
system.l2.overall_accesses::.switch_cpus.inst         6946                       # number of overall (read+write) accesses
system.l2.overall_accesses::.switch_cpus.data          312                       # number of overall (read+write) accesses
system.l2.overall_accesses::total                7261                       # number of overall (read+write) accesses
system.l2.demand_miss_rate::.cpu.inst               1                       # miss rate for demand accesses
system.l2.demand_miss_rate::.cpu.data               1                       # miss rate for demand accesses
system.l2.demand_miss_rate::.switch_cpus.inst     0.058739                       # miss rate for demand accesses
system.l2.demand_miss_rate::.switch_cpus.data     0.939103                       # miss rate for demand accesses
system.l2.demand_miss_rate::total            0.096956                       # miss rate for demand accesses
system.l2.overall_miss_rate::.cpu.inst              1                       # miss rate for overall accesses
system.l2.overall_miss_rate::.cpu.data              1                       # miss rate for overall accesses
system.l2.overall_miss_rate::.switch_cpus.inst     0.058739                       # miss rate for overall accesses
system.l2.overall_miss_rate::.switch_cpus.data     0.939103                       # miss rate for overall accesses
system.l2.overall_miss_rate::total           0.096956                       # miss rate for overall accesses
system.l2.demand_avg_miss_latency::.cpu.inst        77500                       # average overall miss latency
system.l2.demand_avg_miss_latency::.cpu.data        84000                       # average overall miss latency
system.l2.demand_avg_miss_latency::total   339.488636                       # average overall miss latency
system.l2.overall_avg_miss_latency::.cpu.inst        77500                       # average overall miss latency
system.l2.overall_avg_miss_latency::.cpu.data        84000                       # average overall miss latency
system.l2.overall_avg_miss_latency::total   339.488636                       # average overall miss latency
system.l2.blocked_cycles::no_mshrs                  0                       # number of cycles access was blocked
system.l2.blocked_cycles::no_targets                0                       # number of cycles access was blocked
system.l2.blocked::no_mshrs                         0                       # number of cycles access was blocked
system.l2.blocked::no_targets                       0                       # number of cycles access was blocked
system.l2.avg_blocked_cycles::no_mshrs            nan                       # average number of cycles each access was blocked
system.l2.avg_blocked_cycles::no_targets          nan                       # average number of cycles each access was blocked
system.l2.demand_mshr_misses::.cpu.inst             2                       # number of demand (read+write) MSHR misses
system.l2.demand_mshr_misses::.cpu.data             1                       # number of demand (read+write) MSHR misses
system.l2.demand_mshr_misses::total                 3                       # number of demand (read+write) MSHR misses
system.l2.overall_mshr_misses::.cpu.inst            2                       # number of overall MSHR misses
system.l2.overall_mshr_misses::.cpu.data            1                       # number of overall MSHR misses
system.l2.overall_mshr_misses::total                3                       # number of overall MSHR misses
system.l2.demand_mshr_miss_latency::.cpu.inst       135000                       # number of demand (read+write) MSHR miss cycles
system.l2.demand_mshr_miss_latency::.cpu.data        74000                       # number of demand (read+write) MSHR miss cycles
system.l2.demand_mshr_miss_latency::total       209000                       # number of demand (read+write) MSHR miss cycles
system.l2.overall_mshr_miss_latency::.cpu.inst       135000                       # number of overall MSHR miss cycles
system.l2.overall_mshr_miss_latency::.cpu.data        74000                       # number of overall MSHR miss cycles
system.l2.overall_mshr_miss_latency::total       209000                       # number of overall MSHR miss cycles
system.l2.demand_mshr_miss_rate::.cpu.inst            1                       # mshr miss rate for demand accesses
system.l2.demand_mshr_miss_rate::.cpu.data            1                       # mshr miss rate for demand accesses
system.l2.demand_mshr_miss_rate::total       0.000413                       # mshr miss rate for demand accesses
system.l2.overall_mshr_miss_rate::.cpu.inst            1                       # mshr miss rate for overall accesses
system.l2.overall_mshr_miss_rate::.cpu.data            1                       # mshr miss rate for overall accesses
system.l2.overall_mshr_miss_rate::total      0.000413                       # mshr miss rate for overall accesses
system.l2.demand_avg_mshr_miss_latency::.cpu.inst        67500                       # average overall mshr miss latency
system.l2.demand_avg_mshr_miss_latency::.cpu.data        74000                       # average overall mshr miss latency
system.l2.demand_avg_mshr_miss_latency::total 69666.666667                       # average overall mshr miss latency
system.l2.overall_avg_mshr_miss_latency::.cpu.inst        67500                       # average overall mshr miss latency
system.l2.overall_avg_mshr_miss_latency::.cpu.data        74000                       # average overall mshr miss latency
system.l2.overall_avg_mshr_miss_latency::total 69666.666667                       # average overall mshr miss latency
system.l2.replacements                              0                       # number of replacements
system.l2.WritebackDirty_hits::.writebacks           12                       # number of WritebackDirty hits
system.l2.WritebackDirty_hits::total               12                       # number of WritebackDirty hits
system.l2.WritebackDirty_accesses::.writebacks           12                       # number of WritebackDirty accesses(hits+misses)
system.l2.WritebackDirty_accesses::total           12                       # number of WritebackDirty accesses(hits+misses)
system.l2.WritebackClean_hits::.writebacks         6610                       # number of WritebackClean hits
system.l2.WritebackClean_hits::total             6610                       # number of WritebackClean hits
system.l2.WritebackClean_accesses::.writebacks         6610                       # number of WritebackClean accesses(hits+misses)
system.l2.WritebackClean_accesses::total         6610                       # number of WritebackClean accesses(hits+misses)
system.l2.ReadExReq_hits::.switch_cpus.data           11                       # number of ReadExReq hits
system.l2.ReadExReq_hits::total                    11                       # number of ReadExReq hits
system.l2.ReadExReq_misses::.switch_cpus.data           63                       # number of ReadExReq misses
system.l2.ReadExReq_misses::total                  63                       # number of ReadExReq misses
system.l2.ReadExReq_accesses::.switch_cpus.data           74                       # number of ReadExReq accesses(hits+misses)
system.l2.ReadExReq_accesses::total                74                       # number of ReadExReq accesses(hits+misses)
system.l2.ReadExReq_miss_rate::.switch_cpus.data     0.851351                       # miss rate for ReadExReq accesses
system.l2.ReadExReq_miss_rate::total         0.851351                       # miss rate for ReadExReq accesses
system.l2.ReadCleanReq_hits::.switch_cpus.inst         6538                       # number of ReadCleanReq hits
system.l2.ReadCleanReq_hits::total               6538                       # number of ReadCleanReq hits
system.l2.ReadCleanReq_misses::.cpu.inst            2                       # number of ReadCleanReq misses
system.l2.ReadCleanReq_misses::.switch_cpus.inst          408                       # number of ReadCleanReq misses
system.l2.ReadCleanReq_misses::total              410                       # number of ReadCleanReq misses
system.l2.ReadCleanReq_miss_latency::.cpu.inst       155000                       # number of ReadCleanReq miss cycles
system.l2.ReadCleanReq_miss_latency::total       155000                       # number of ReadCleanReq miss cycles
system.l2.ReadCleanReq_accesses::.cpu.inst            2                       # number of ReadCleanReq accesses(hits+misses)
system.l2.ReadCleanReq_accesses::.switch_cpus.inst         6946                       # number of ReadCleanReq accesses(hits+misses)
system.l2.ReadCleanReq_accesses::total           6948                       # number of ReadCleanReq accesses(hits+misses)
system.l2.ReadCleanReq_miss_rate::.cpu.inst            1                       # miss rate for ReadCleanReq accesses
system.l2.ReadCleanReq_miss_rate::.switch_cpus.inst     0.058739                       # miss rate for ReadCleanReq accesses
system.l2.ReadCleanReq_miss_rate::total      0.059010                       # miss rate for ReadCleanReq accesses
system.l2.ReadCleanReq_avg_miss_latency::.cpu.inst        77500                       # average ReadCleanReq miss latency
system.l2.ReadCleanReq_avg_miss_latency::total   378.048780                       # average ReadCleanReq miss latency
system.l2.ReadCleanReq_mshr_misses::.cpu.inst            2                       # number of ReadCleanReq MSHR misses
system.l2.ReadCleanReq_mshr_misses::total            2                       # number of ReadCleanReq MSHR misses
system.l2.ReadCleanReq_mshr_miss_latency::.cpu.inst       135000                       # number of ReadCleanReq MSHR miss cycles
system.l2.ReadCleanReq_mshr_miss_latency::total       135000                       # number of ReadCleanReq MSHR miss cycles
system.l2.ReadCleanReq_mshr_miss_rate::.cpu.inst            1                       # mshr miss rate for ReadCleanReq accesses
system.l2.ReadCleanReq_mshr_miss_rate::total     0.000288                       # mshr miss rate for ReadCleanReq accesses
system.l2.ReadCleanReq_avg_mshr_miss_latency::.cpu.inst        67500                       # average ReadCleanReq mshr miss latency
system.l2.ReadCleanReq_avg_mshr_miss_latency::total        67500                       # average ReadCleanReq mshr miss latency
system.l2.ReadSharedReq_hits::.switch_cpus.data            8                       # number of ReadSharedReq hits
system.l2.ReadSharedReq_hits::total                 8                       # number of ReadSharedReq hits
system.l2.ReadSharedReq_misses::.cpu.data            1                       # number of ReadSharedReq misses
system.l2.ReadSharedReq_misses::.switch_cpus.data          230                       # number of ReadSharedReq misses
system.l2.ReadSharedReq_misses::total             231                       # number of ReadSharedReq misses
system.l2.ReadSharedReq_miss_latency::.cpu.data        84000                       # number of ReadSharedReq miss cycles
system.l2.ReadSharedReq_miss_latency::total        84000                       # number of ReadSharedReq miss cycles
system.l2.ReadSharedReq_accesses::.cpu.data            1                       # number of ReadSharedReq accesses(hits+misses)
system.l2.ReadSharedReq_accesses::.switch_cpus.data          238                       # number of ReadSharedReq accesses(hits+misses)
system.l2.ReadSharedReq_accesses::total           239                       # number of ReadSharedReq accesses(hits+misses)
system.l2.ReadSharedReq_miss_rate::.cpu.data            1                       # miss rate for ReadSharedReq accesses
system.l2.ReadSharedReq_miss_rate::.switch_cpus.data     0.966387                       # miss rate for ReadSharedReq accesses
system.l2.ReadSharedReq_miss_rate::total     0.966527                       # miss rate for ReadSharedReq accesses
system.l2.ReadSharedReq_avg_miss_latency::.cpu.data        84000                       # average ReadSharedReq miss latency
system.l2.ReadSharedReq_avg_miss_latency::total   363.636364                       # average ReadSharedReq miss latency
system.l2.ReadSharedReq_mshr_misses::.cpu.data            1                       # number of ReadSharedReq MSHR misses
system.l2.ReadSharedReq_mshr_misses::total            1                       # number of ReadSharedReq MSHR misses
system.l2.ReadSharedReq_mshr_miss_latency::.cpu.data        74000                       # number of ReadSharedReq MSHR miss cycles
system.l2.ReadSharedReq_mshr_miss_latency::total        74000                       # number of ReadSharedReq MSHR miss cycles
system.l2.ReadSharedReq_mshr_miss_rate::.cpu.data            1                       # mshr miss rate for ReadSharedReq accesses
system.l2.ReadSharedReq_mshr_miss_rate::total     0.004184                       # mshr miss rate for ReadSharedReq accesses
system.l2.ReadSharedReq_avg_mshr_miss_latency::.cpu.data        74000                       # average ReadSharedReq mshr miss latency
system.l2.ReadSharedReq_avg_mshr_miss_latency::total        74000                       # average ReadSharedReq mshr miss latency
system.l2.tags.pwrStateResidencyTicks::UNDEFINED 180555842854000                       # Cumulative time (in ticks) in various power states
system.l2.tags.tagsinuse                   365.060923                       # Cycle average of tags in use
system.l2.tags.total_refs                       13909                       # Total number of references to valid blocks.
system.l2.tags.sampled_refs                       704                       # Sample count of references to valid blocks.
system.l2.tags.avg_refs                     19.757102                       # Average number of references to valid blocks.
system.l2.tags.warmup_cycle              180554674197000                       # Cycle when the warmup percentage was hit.
system.l2.tags.occ_blocks::.cpu.inst         1.999806                       # Average occupied blocks per requestor
system.l2.tags.occ_blocks::.cpu.data         0.999857                       # Average occupied blocks per requestor
system.l2.tags.occ_blocks::.switch_cpus.inst   210.885895                       # Average occupied blocks per requestor
system.l2.tags.occ_blocks::.switch_cpus.data   151.175365                       # Average occupied blocks per requestor
system.l2.tags.occ_percent::.cpu.inst        0.000244                       # Average percentage of cache occupancy
[...]
system.cpu.icache.tags.sampled_refs              6948                       # Sample count of references to valid blocks.
system.cpu.icache.tags.avg_refs            200.297640                       # Average number of references to valid blocks.
system.cpu.icache.tags.warmup_cycle      180554674207500                       # Cycle when the warmup percentage was hit.
system.cpu.icache.tags.occ_blocks::.cpu.inst     1.999788                       # Average occupied blocks per requestor
system.cpu.icache.tags.occ_blocks::.switch_cpus.inst   196.322261                       # Average occupied blocks per requestor
system.cpu.icache.tags.occ_percent::.cpu.inst     0.003906                       # Average percentage of cache occupancy
system.cpu.icache.tags.occ_percent::.switch_cpus.inst     0.383442                       # Average percentage of cache occupancy
system.cpu.icache.tags.occ_percent::total     0.387348                       # Average percentage of cache occupancy
system.cpu.icache.tags.occ_task_id_blocks::1024          338                       # Occupied blocks per task id
system.cpu.icache.tags.age_task_id_blocks_1024::0          186                       # Occupied blocks per task id
system.cpu.icache.tags.age_task_id_blocks_1024::1            6                       # Occupied blocks per task id
system.cpu.icache.tags.age_task_id_blocks_1024::2           11                       # Occupied blocks per task id
system.cpu.icache.tags.age_task_id_blocks_1024::3          135                       # Occupied blocks per task id
system.cpu.icache.tags.occ_task_id_percent::1024     0.660156                       # Percentage of cache occupancy per task id
system.cpu.icache.tags.tag_accesses           2790284                       # Number of tag accesses
system.cpu.icache.tags.data_accesses          2790284                       # Number of data accesses
system.cpu.dtb.walker.pwrStateResidencyTicks::UNDEFINED 180555842854000                       # Cumulative time (in ticks) in various power states
system.cpu.interrupts.clk_domain.clock           8000                       # Clock period in ticks
system.cpu.itb_walker_cache.pwrStateResidencyTicks::UNDEFINED 180555842854000                       # Cumulative time (in ticks) in various power states
system.cpu.itb_walker_cache.blocked_cycles::no_mshrs            0                       # number of cycles access was blocked
system.cpu.itb_walker_cache.blocked_cycles::no_targets            0                       # number of cycles access was blocked
system.cpu.itb_walker_cache.blocked::no_mshrs            0                       # number of cycles access was blocked
system.cpu.itb_walker_cache.blocked::no_targets            0                       # number of cycles access was blocked
system.cpu.itb_walker_cache.avg_blocked_cycles::no_mshrs          nan                       # average number of cycles each access was blocked
system.cpu.itb_walker_cache.avg_blocked_cycles::no_targets          nan                       # average number of cycles each access was blocked
system.cpu.itb_walker_cache.replacements            0                       # number of replacements
system.cpu.itb_walker_cache.tags.pwrStateResidencyTicks::UNDEFINED 180555842854000                       # Cumulative time (in ticks) in various power states
system.cpu.itb_walker_cache.tags.tagsinuse            0                       # Cycle average of tags in use
system.cpu.itb_walker_cache.tags.total_refs            0                       # Total number of references to valid blocks.
system.cpu.itb_walker_cache.tags.sampled_refs            0                       # Sample count of references to valid blocks.
system.cpu.itb_walker_cache.tags.avg_refs          nan                       # Average number of references to valid blocks.
system.cpu.itb_walker_cache.tags.warmup_cycle            0                       # Cycle when the warmup percentage was hit.
system.cpu.itb_walker_cache.tags.tag_accesses            0                       # Number of tag accesses
system.cpu.itb_walker_cache.tags.data_accesses            0                       # Number of data accesses
system.cpu.itb.walker.pwrStateResidencyTicks::UNDEFINED 180555842854000                       # Cumulative time (in ticks) in various power states
system.cpu.dtb_walker_cache.pwrStateResidencyTicks::UNDEFINED 180555842854000                       # Cumulative time (in ticks) in various power states
system.cpu.dtb_walker_cache.blocked_cycles::no_mshrs            0                       # number of cycles access was blocked
system.cpu.dtb_walker_cache.blocked_cycles::no_targets            0                       # number of cycles access was blocked
system.cpu.dtb_walker_cache.blocked::no_mshrs            0                       # number of cycles access was blocked
system.cpu.dtb_walker_cache.blocked::no_targets            0                       # number of cycles access was blocked
system.cpu.dtb_walker_cache.avg_blocked_cycles::no_mshrs          nan                       # average number of cycles each access was blocked
system.cpu.dtb_walker_cache.avg_blocked_cycles::no_targets          nan                       # average number of cycles each access was blocked
system.cpu.dtb_walker_cache.replacements            0                       # number of replacements
system.cpu.dtb_walker_cache.tags.pwrStateResidencyTicks::UNDEFINED 180555842854000                       # Cumulative time (in ticks) in various power states
system.cpu.dtb_walker_cache.tags.tagsinuse            0                       # Cycle average of tags in use
system.cpu.dtb_walker_cache.tags.total_refs            0                       # Total number of references to valid blocks.
system.cpu.dtb_walker_cache.tags.sampled_refs            0                       # Sample count of references to valid blocks.
system.cpu.dtb_walker_cache.tags.avg_refs          nan                       # Average number of references to valid blocks.
system.cpu.dtb_walker_cache.tags.warmup_cycle            0                       # Cycle when the warmup percentage was hit.
system.cpu.dtb_walker_cache.tags.tag_accesses            0                       # Number of tag accesses
system.cpu.dtb_walker_cache.tags.data_accesses            0                       # Number of data accesses
system.cpu.dcache.pwrStateResidencyTicks::UNDEFINED 180555842854000                       # Cumulative time (in ticks) in various power states
system.cpu.dcache.demand_hits::.switch_cpus.data       356339                       # number of demand (read+write) hits
system.cpu.dcache.demand_hits::total           356339                       # number of demand (read+write) hits
system.cpu.dcache.overall_hits::.switch_cpus.data       356512                       # number of overall hits
system.cpu.dcache.overall_hits::total          356512                       # number of overall hits
system.cpu.dcache.demand_misses::.cpu.data            1                       # number of demand (read+write) misses
system.cpu.dcache.demand_misses::.switch_cpus.data          309                       # number of demand (read+write) misses
system.cpu.dcache.demand_misses::total            310                       # number of demand (read+write) misses
system.cpu.dcache.overall_misses::.cpu.data            1                       # number of overall misses
system.cpu.dcache.overall_misses::.switch_cpus.data          312                       # number of overall misses
system.cpu.dcache.overall_misses::total           313                       # number of overall misses
system.cpu.dcache.demand_miss_latency::.cpu.data        86500                       # number of demand (read+write) miss cycles
system.cpu.dcache.demand_miss_latency::total        86500                       # number of demand (read+write) miss cycles
system.cpu.dcache.overall_miss_latency::.cpu.data        86500                       # number of overall miss cycles
system.cpu.dcache.overall_miss_latency::total        86500                       # number of overall miss cycles
system.cpu.dcache.demand_accesses::.cpu.data            1                       # number of demand (read+write) accesses
system.cpu.dcache.demand_accesses::.switch_cpus.data       356648                       # number of demand (read+write) accesses
system.cpu.dcache.demand_accesses::total       356649                       # number of demand (read+write) accesses
system.cpu.dcache.overall_accesses::.cpu.data            1                       # number of overall (read+write) accesses
system.cpu.dcache.overall_accesses::.switch_cpus.data       356824                       # number of overall (read+write) accesses
system.cpu.dcache.overall_accesses::total       356825                       # number of overall (read+write) accesses
system.cpu.dcache.demand_miss_rate::.cpu.data            1                       # miss rate for demand accesses
system.cpu.dcache.demand_miss_rate::.switch_cpus.data     0.000866                       # miss rate for demand accesses
system.cpu.dcache.demand_miss_rate::total     0.000869                       # miss rate for demand accesses
system.cpu.dcache.overall_miss_rate::.cpu.data            1                       # miss rate for overall accesses
system.cpu.dcache.overall_miss_rate::.switch_cpus.data     0.000874                       # miss rate for overall accesses
system.cpu.dcache.overall_miss_rate::total     0.000877                       # miss rate for overall accesses
system.cpu.dcache.demand_avg_miss_latency::.cpu.data        86500                       # average overall miss latency
system.cpu.dcache.demand_avg_miss_latency::total   279.032258                       # average overall miss latency
system.cpu.dcache.overall_avg_miss_latency::.cpu.data        86500                       # average overall miss latency
system.cpu.dcache.overall_avg_miss_latency::total   276.357827                       # average overall miss latency
system.cpu.dcache.blocked_cycles::no_mshrs            0                       # number of cycles access was blocked
system.cpu.dcache.blocked_cycles::no_targets            0                       # number of cycles access was blocked
system.cpu.dcache.blocked::no_mshrs                 0                       # number of cycles access was blocked
system.cpu.dcache.blocked::no_targets               0                       # number of cycles access was blocked
system.cpu.dcache.avg_blocked_cycles::no_mshrs          nan                       # average number of cycles each access was blocked
system.cpu.dcache.avg_blocked_cycles::no_targets          nan                       # average number of cycles each access was blocked
system.cpu.dcache.writebacks::.writebacks           12                       # number of writebacks
system.cpu.dcache.writebacks::total                12                       # number of writebacks
system.cpu.dcache.demand_mshr_misses::.cpu.data            1                       # number of demand (read+write) MSHR misses
system.cpu.dcache.demand_mshr_misses::total            1                       # number of demand (read+write) MSHR misses
system.cpu.dcache.overall_mshr_misses::.cpu.data            1                       # number of overall MSHR misses
system.cpu.dcache.overall_mshr_misses::total            1                       # number of overall MSHR misses
system.cpu.dcache.demand_mshr_miss_latency::.cpu.data        85500                       # number of demand (read+write) MSHR miss cycles
system.cpu.dcache.demand_mshr_miss_latency::total        85500                       # number of demand (read+write) MSHR miss cycles
system.cpu.dcache.overall_mshr_miss_latency::.cpu.data        85500                       # number of overall MSHR miss cycles
system.cpu.dcache.overall_mshr_miss_latency::total        85500                       # number of overall MSHR miss cycles
system.cpu.dcache.demand_mshr_miss_rate::.cpu.data            1                       # mshr miss rate for demand accesses
system.cpu.dcache.demand_mshr_miss_rate::total     0.000003                       # mshr miss rate for demand accesses
system.cpu.dcache.overall_mshr_miss_rate::.cpu.data            1                       # mshr miss rate for overall accesses
system.cpu.dcache.overall_mshr_miss_rate::total     0.000003                       # mshr miss rate for overall accesses
system.cpu.dcache.demand_avg_mshr_miss_latency::.cpu.data        85500                       # average overall mshr miss latency
system.cpu.dcache.demand_avg_mshr_miss_latency::total        85500                       # average overall mshr miss latency
system.cpu.dcache.overall_avg_mshr_miss_latency::.cpu.data        85500                       # average overall mshr miss latency
system.cpu.dcache.overall_avg_mshr_miss_latency::total        85500                       # average overall mshr miss latency
system.cpu.dcache.replacements                     38                       # number of replacements
system.cpu.dcache.ReadReq_hits::.switch_cpus.data       221919                       # number of ReadReq hits
system.cpu.dcache.ReadReq_hits::total          221919                       # number of ReadReq hits
system.cpu.dcache.ReadReq_misses::.cpu.data            1                       # number of ReadReq misses
system.cpu.dcache.ReadReq_misses::.switch_cpus.data          235                       # number of ReadReq misses
system.cpu.dcache.ReadReq_misses::total           236                       # number of ReadReq misses
system.cpu.dcache.ReadReq_miss_latency::.cpu.data        86500                       # number of ReadReq miss cycles
system.cpu.dcache.ReadReq_miss_latency::total        86500                       # number of ReadReq miss cycles
system.cpu.dcache.ReadReq_accesses::.cpu.data            1                       # number of ReadReq accesses(hits+misses)
system.cpu.dcache.ReadReq_accesses::.switch_cpus.data       222154                       # number of ReadReq accesses(hits+misses)
system.cpu.dcache.ReadReq_accesses::total       222155                       # number of ReadReq accesses(hits+misses)
system.cpu.dcache.ReadReq_miss_rate::.cpu.data            1                       # miss rate for ReadReq accesses
system.cpu.dcache.ReadReq_miss_rate::.switch_cpus.data     0.001058                       # miss rate for ReadReq accesses
system.cpu.dcache.ReadReq_miss_rate::total     0.001062                       # miss rate for ReadReq accesses
system.cpu.dcache.ReadReq_avg_miss_latency::.cpu.data        86500                       # average ReadReq miss latency
system.cpu.dcache.ReadReq_avg_miss_latency::total   366.525424                       # average ReadReq miss latency
system.cpu.dcache.ReadReq_mshr_misses::.cpu.data            1                       # number of ReadReq MSHR misses
system.cpu.dcache.ReadReq_mshr_misses::total            1                       # number of ReadReq MSHR misses
system.cpu.dcache.ReadReq_mshr_miss_latency::.cpu.data        85500                       # number of ReadReq MSHR miss cycles
system.cpu.dcache.ReadReq_mshr_miss_latency::total        85500                       # number of ReadReq MSHR miss cycles
system.cpu.dcache.ReadReq_mshr_miss_rate::.cpu.data            1                       # mshr miss rate for ReadReq accesses
system.cpu.dcache.ReadReq_mshr_miss_rate::total     0.000005                       # mshr miss rate for ReadReq accesses
system.cpu.dcache.ReadReq_avg_mshr_miss_latency::.cpu.data        85500                       # average ReadReq mshr miss latency
system.cpu.dcache.ReadReq_avg_mshr_miss_latency::total        85500                       # average ReadReq mshr miss latency
system.cpu.dcache.WriteReq_hits::.switch_cpus.data       134420                       # number of WriteReq hits
system.cpu.dcache.WriteReq_hits::total         134420                       # number of WriteReq hits
system.cpu.dcache.WriteReq_misses::.switch_cpus.data           74                       # number of WriteReq misses
system.cpu.dcache.WriteReq_misses::total           74                       # number of WriteReq misses
system.cpu.dcache.WriteReq_accesses::.switch_cpus.data       134494                       # number of WriteReq accesses(hits+misses)
system.cpu.dcache.WriteReq_accesses::total       134494                       # number of WriteReq accesses(hits+misses)
system.cpu.dcache.WriteReq_miss_rate::.switch_cpus.data     0.000550                       # miss rate for WriteReq accesses
system.cpu.dcache.WriteReq_miss_rate::total     0.000550                       # miss rate for WriteReq accesses
system.cpu.dcache.SoftPFReq_hits::.switch_cpus.data          173                       # number of SoftPFReq hits
system.cpu.dcache.SoftPFReq_hits::total           173                       # number of SoftPFReq hits
system.cpu.dcache.SoftPFReq_misses::.switch_cpus.data            3                       # number of SoftPFReq misses
system.cpu.dcache.SoftPFReq_misses::total            3                       # number of SoftPFReq misses
system.cpu.dcache.SoftPFReq_accesses::.switch_cpus.data          176                       # number of SoftPFReq accesses(hits+misses)
system.cpu.dcache.SoftPFReq_accesses::total          176                       # number of SoftPFReq accesses(hits+misses)
system.cpu.dcache.SoftPFReq_miss_rate::.switch_cpus.data     0.017045                       # miss rate for SoftPFReq accesses
system.cpu.dcache.SoftPFReq_miss_rate::total     0.017045                       # miss rate for SoftPFReq accesses
system.cpu.dcache.tags.pwrStateResidencyTicks::UNDEFINED 180555842854000                       # Cumulative time (in ticks) in various power states
system.cpu.dcache.tags.tagsinuse           144.984977                       # Cycle average of tags in use
system.cpu.dcache.tags.total_refs              356825                       # Total number of references to valid blocks.
system.cpu.dcache.tags.sampled_refs               313                       # Sample count of references to valid blocks.
system.cpu.dcache.tags.avg_refs           1140.015974                       # Average number of references to valid blocks.
system.cpu.dcache.tags.warmup_cycle      180554674297500                       # Cycle when the warmup percentage was hit.
system.cpu.dcache.tags.occ_blocks::.cpu.data     0.999848                       # Average occupied blocks per requestor
system.cpu.dcache.tags.occ_blocks::.switch_cpus.data   143.985129                       # Average occupied blocks per requestor
system.cpu.dcache.tags.occ_percent::.cpu.data     0.000976                       # Average percentage of cache occupancy
system.cpu.dcache.tags.occ_percent::.switch_cpus.data     0.140610                       # Average percentage of cache occupancy
system.cpu.dcache.tags.occ_percent::total     0.141587                       # Average percentage of cache occupancy
system.cpu.dcache.tags.occ_task_id_blocks::1024          275                       # Occupied blocks per task id
system.cpu.dcache.tags.age_task_id_blocks_1024::0           67                       # Occupied blocks per task id
system.cpu.dcache.tags.age_task_id_blocks_1024::1            7                       # Occupied blocks per task id
system.cpu.dcache.tags.age_task_id_blocks_1024::2          112                       # Occupied blocks per task id
system.cpu.dcache.tags.age_task_id_blocks_1024::3           89                       # Occupied blocks per task id
system.cpu.dcache.tags.occ_task_id_percent::1024     0.268555                       # Percentage of cache occupancy per task id
system.cpu.dcache.tags.tag_accesses            713963                       # Number of tag accesses
system.cpu.dcache.tags.data_accesses           713963                       # Number of data accesses

---------- End Simulation Statistics   ----------
