
---------- Begin Simulation Statistics ----------
final_tick                               560741990629500                       # Number of ticks from beginning of simulation (restored from checkpoints and never reset)
host_inst_rate                                  32505                       # Simulator instruction rate (inst/s)
host_mem_usage                                 878524                       # Number of bytes of host memory used
host_op_rate                                    73063                       # Simulator op (including micro ops) rate (op/s)
host_seconds                                   307.65                       # Real time elapsed on the host
host_tick_rate                               25884296                       # Simulator tick rate (ticks/s)
sim_freq                                 1000000000000                       # Frequency of simulated ticks
sim_insts                                    10000008                       # Number of instructions simulated
sim_ops                                      22477347                       # Number of ops (including micro ops) simulated
sim_seconds                                  0.007963                       # Number of seconds simulated
sim_ticks                                  7963179500                       # Number of ticks simulated
system.cpu.committedInsts                           8                       # Number of instructions committed
system.cpu.committedOps                            16                       # Number of ops (including micro ops) committed
system.cpu.dtb.rdAccesses                           2                       # TLB accesses on read requests
system.cpu.dtb.rdMisses                             0                       # TLB misses on read requests
system.cpu.dtb.wrAccesses                           4                       # TLB accesses on write requests
system.cpu.dtb.wrMisses                             0                       # TLB misses on write requests
system.cpu.idle_fraction                            0                       # Percentage of idle cycles
system.cpu.itb.rdAccesses                           0                       # TLB accesses on read requests
system.cpu.itb.rdMisses                             0                       # TLB misses on read requests
system.cpu.itb.wrAccesses                          13                       # TLB accesses on write requests
system.cpu.itb.wrMisses                             0                       # TLB misses on write requests
system.cpu.not_idle_fraction                        1                       # Percentage of non-idle cycles
system.cpu.numCycles                               21                       # number of cpu cycles simulated
system.cpu.numWorkItemsCompleted                    0                       # number of work items this cpu completed
system.cpu.numWorkItemsStarted                      0                       # number of work items this cpu started
system.cpu.num_busy_cycles                         21                       # Number of busy cycles
system.cpu.num_conditional_control_insts            0                       # number of instructions that are conditional controls
system.cpu.num_fp_alu_accesses                     16                       # Number of float alu accesses
system.cpu.num_fp_insts                            16                       # number of float instructions
system.cpu.num_fp_register_reads                   32                       # number of times the floating registers were read
system.cpu.num_fp_register_writes                  12                       # number of times the floating registers were written
system.cpu.num_func_calls                           0                       # number of times a function call or return occured
system.cpu.num_idle_cycles                          0                       # Number of idle cycles
system.cpu.num_int_alu_accesses                     6                       # Number of integer alu accesses
system.cpu.num_int_insts                            6                       # number of integer instructions
system.cpu.num_int_register_reads                  18                       # number of times the integer registers were read
system.cpu.num_int_register_writes                  0                       # number of times the integer registers were written
system.cpu.num_load_insts                           2                       # Number of load instructions
system.cpu.num_mem_refs                             6                       # number of memory refs
system.cpu.num_store_insts                          4                       # Number of store instructions
system.cpu.num_vec_alu_accesses                     0                       # Number of vector alu accesses
system.cpu.num_vec_insts                            0                       # number of vector instructions
system.cpu.num_vec_register_reads                   0                       # number of times the vector registers were read
system.cpu.num_vec_register_writes                  0                       # number of times the vector registers were written
system.cpu.op_class::No_OpClass                     0      0.00%      0.00% # Class of executed instruction
system.cpu.op_class::IntAlu                         2     12.50%     12.50% # Class of executed instruction
system.cpu.op_class::IntMult                        0      0.00%     12.50% # Class of executed instruction
system.cpu.op_class::IntDiv                         0      0.00%     12.50% # Class of executed instruction
system.cpu.op_class::FloatAdd                       0      0.00%     12.50% # Class of executed instruction
system.cpu.op_class::FloatCmp                       0      0.00%     12.50% # Class of executed instruction
system.cpu.op_class::FloatCvt                       0      0.00%     12.50% # Class of executed instruction
system.cpu.op_class::FloatMult                      0      0.00%     12.50% # Class of executed instruction
system.cpu.op_class::FloatMultAcc                   0      0.00%     12.50% # Class of executed instruction
system.cpu.op_class::FloatDiv                       0      0.00%     12.50% # Class of executed instruction
system.cpu.op_class::FloatMisc                      0      0.00%     12.50% # Class of executed instruction
system.cpu.op_class::FloatSqrt                      0      0.00%     12.50% # Class of executed instruction
system.cpu.op_class::SimdAdd                        0      0.00%     12.50% # Class of executed instruction
system.cpu.op_class::SimdAddAcc                     0      0.00%     12.50% # Class of executed instruction
system.cpu.op_class::SimdAlu                        0      0.00%     12.50% # Class of executed instruction
system.cpu.op_class::SimdCmp                        0      0.00%     12.50% # Class of executed instruction
system.cpu.op_class::SimdCvt                        0      0.00%     12.50% # Class of executed instruction
system.cpu.op_class::SimdMisc                       0      0.00%     12.50% # Class of executed instruction
system.cpu.op_class::SimdMult                       0      0.00%     12.50% # Class of executed instruction
system.cpu.op_class::SimdMultAcc                    0      0.00%     12.50% # Class of executed instruction
system.cpu.op_class::SimdShift                      0      0.00%     12.50% # Class of executed instruction
system.cpu.op_class::SimdShiftAcc                   0      0.00%     12.50% # Class of executed instruction
system.cpu.op_class::SimdDiv                        0      0.00%     12.50% # Class of executed instruction
system.cpu.op_class::SimdSqrt                       0      0.00%     12.50% # Class of executed instruction
system.cpu.op_class::SimdFloatAdd                   6     37.50%     50.00% # Class of executed instruction
system.cpu.op_class::SimdFloatAlu                   0      0.00%     50.00% # Class of executed instruction
system.cpu.op_class::SimdFloatCmp                   0      0.00%     50.00% # Class of executed instruction
system.cpu.op_class::SimdFloatCvt                   0      0.00%     50.00% # Class of executed instruction
system.cpu.op_class::SimdFloatDiv                   0      0.00%     50.00% # Class of executed instruction
system.cpu.op_class::SimdFloatMisc                  0      0.00%     50.00% # Class of executed instruction
system.cpu.op_class::SimdFloatMult                  2     12.50%     62.50% # Class of executed instruction
system.cpu.op_class::SimdFloatMultAcc               0      0.00%     62.50% # Class of executed instruction
system.cpu.op_class::SimdFloatSqrt                  0      0.00%     62.50% # Class of executed instruction
system.cpu.op_class::SimdReduceAdd                  0      0.00%     62.50% # Class of executed instruction
system.cpu.op_class::SimdReduceAlu                  0      0.00%     62.50% # Class of executed instruction
system.cpu.op_class::SimdReduceCmp                  0      0.00%     62.50% # Class of executed instruction
system.cpu.op_class::SimdFloatReduceAdd             0      0.00%     62.50% # Class of executed instruction
system.cpu.op_class::SimdFloatReduceCmp             0      0.00%     62.50% # Class of executed instruction
system.cpu.op_class::SimdAes                        0      0.00%     62.50% # Class of executed instruction
system.cpu.op_class::SimdAesMix                     0      0.00%     62.50% # Class of executed instruction
system.cpu.op_class::SimdSha1Hash                   0      0.00%     62.50% # Class of executed instruction
system.cpu.op_class::SimdSha1Hash2                  0      0.00%     62.50% # Class of executed instruction
system.cpu.op_class::SimdSha256Hash                 0      0.00%     62.50% # Class of executed instruction
system.cpu.op_class::SimdSha256Hash2                0      0.00%     62.50% # Class of executed instruction
system.cpu.op_class::SimdShaSigma2                  0      0.00%     62.50% # Class of executed instruction
system.cpu.op_class::SimdShaSigma3                  0      0.00%     62.50% # Class of executed instruction
system.cpu.op_class::SimdPredAlu                    0      0.00%     62.50% # Class of executed instruction
system.cpu.op_class::MemRead                        0      0.00%     62.50% # Class of executed instruction
system.cpu.op_class::MemWrite                       0      0.00%     62.50% # Class of executed instruction
system.cpu.op_class::FloatMemRead                   2     12.50%     75.00% # Class of executed instruction
system.cpu.op_class::FloatMemWrite                  4     25.00%    100.00% # Class of executed instruction
system.cpu.op_class::IprAccess                      0      0.00%    100.00% # Class of executed instruction
system.cpu.op_class::InstPrefetch                   0      0.00%    100.00% # Class of executed instruction
system.cpu.op_class::total                         16                       # Class of executed instruction
system.cpu.workload.numSyscalls                     0                       # Number of system calls
system.membus.snoop_filter.hit_multi_requests            0                       # Number of requests hitting in the snoop filter with multiple (>1) holders of the requested data.
system.membus.snoop_filter.hit_multi_snoops            0                       # Number of snoops hitting in the snoop filter with multiple (>1) holders of the requested data.
system.membus.snoop_filter.hit_single_requests        95598                       # Number of requests hitting in the snoop filter with a single holder of the requested data.
system.membus.snoop_filter.hit_single_snoops            0                       # Number of snoops hitting in the snoop filter with a single holder of the requested data.
system.membus.snoop_filter.tot_requests        193921                       # Total number of requests made to the snoop filter.
system.membus.snoop_filter.tot_snoops               0                       # Total number of snoops made to the snoop filter.
system.switch_cpus.branchPred.BTBCorrect            0                       # Number of correct BTB predictions (this stat may not work properly.
system.switch_cpus.branchPred.BTBHitPct      0.000000                       # BTB Hit Percentage
system.switch_cpus.branchPred.BTBHits               0                       # Number of BTB hits
system.switch_cpus.branchPred.BTBLookups        35159                       # Number of BTB lookups
system.switch_cpus.branchPred.RASInCorrect            0                       # Number of incorrect RAS predictions.
system.switch_cpus.branchPred.condIncorrect          789                       # Number of conditional branches incorrect
system.switch_cpus.branchPred.condPredicted        40239                       # Number of conditional branches predicted
system.switch_cpus.branchPred.indirectHits        28205                       # Number of indirect target hits.
system.switch_cpus.branchPred.indirectLookups        35159                       # Number of indirect predictor lookups.
system.switch_cpus.branchPred.indirectMisses         6954                       # Number of indirect misses.
system.switch_cpus.branchPred.lookups           45729                       # Number of BP lookups
system.switch_cpus.branchPred.usedRAS            5111                       # Number of times the RAS was used to get a target.
system.switch_cpus.branchPredindirectMispredicted           52                       # Number of mispredicted indirect branches.
system.switch_cpus.cc_regfile_reads            196640                       # number of cc regfile reads
system.switch_cpus.cc_regfile_writes           329332                       # number of cc regfile writes
system.switch_cpus.commit.amos                      0                       # Number of atomic instructions committed
system.switch_cpus.commit.branchMispredicts          789                       # The number of times a branch was mispredicted
system.switch_cpus.commit.branches              19425                       # Number of branches committed
system.switch_cpus.commit.bw_lim_events       1555777                       # number cycles where commit BW limit reached
system.switch_cpus.commit.commitNonSpecStalls          320                       # The number of times commit has been forced to stall to communicate backwards
system.switch_cpus.commit.commitSquashedInsts       469350                       # The number of squashed insts skipped by commit
system.switch_cpus.commit.committedInsts     10000000                       # Number of instructions committed
system.switch_cpus.commit.committedOps       22477331                       # Number of ops (including micro ops) committed
system.switch_cpus.commit.committed_per_cycle::samples     15835274                       # Number of insts commited each cycle
system.switch_cpus.commit.committed_per_cycle::mean     1.419447                       # Number of insts commited each cycle
system.switch_cpus.commit.committed_per_cycle::stdev     2.648130                       # Number of insts commited each cycle
system.switch_cpus.commit.committed_per_cycle::underflows            0      0.00%      0.00% # Number of insts commited each cycle
system.switch_cpus.commit.committed_per_cycle::0     11160564     70.48%     70.48% # Number of insts commited each cycle
system.switch_cpus.commit.committed_per_cycle::1       680143      4.30%     74.77% # Number of insts commited each cycle
system.switch_cpus.commit.committed_per_cycle::2       827008      5.22%     80.00% # Number of insts commited each cycle
system.switch_cpus.commit.committed_per_cycle::3       261331      1.65%     81.65% # Number of insts commited each cycle
system.switch_cpus.commit.committed_per_cycle::4       562327      3.55%     85.20% # Number of insts commited each cycle
system.switch_cpus.commit.committed_per_cycle::5       259131      1.64%     86.83% # Number of insts commited each cycle
system.switch_cpus.commit.committed_per_cycle::6       334951      2.12%     88.95% # Number of insts commited each cycle
system.switch_cpus.commit.committed_per_cycle::7       194042      1.23%     90.18% # Number of insts commited each cycle
system.switch_cpus.commit.committed_per_cycle::8      1555777      9.82%    100.00% # Number of insts commited each cycle
system.switch_cpus.commit.committed_per_cycle::overflows            0      0.00%    100.00% # Number of insts commited each cycle
system.switch_cpus.commit.committed_per_cycle::min_value            0                       # Number of insts commited each cycle
system.switch_cpus.commit.committed_per_cycle::max_value            8                       # Number of insts commited each cycle
system.switch_cpus.commit.committed_per_cycle::total     15835274                       # Number of insts commited each cycle
system.switch_cpus.commit.fp_insts           21302745                       # Number of committed floating point instructions.
system.switch_cpus.commit.function_calls          320                       # Number of function calls committed.
system.switch_cpus.commit.int_insts          10363713                       # Number of committed integer instructions.
system.switch_cpus.commit.loads               7651132                       # Number of loads committed
system.switch_cpus.commit.membars                   0                       # Number of memory barriers committed
system.switch_cpus.commit.op_class_0::No_OpClass          637      0.00%      0.00% # Class of committed instruction
system.switch_cpus.commit.op_class_0::IntAlu      3034804     13.50%     13.50% # Class of committed instruction
system.switch_cpus.commit.op_class_0::IntMult          658      0.00%     13.51% # Class of committed instruction
system.switch_cpus.commit.op_class_0::IntDiv            0      0.00%     13.51% # Class of committed instruction
system.switch_cpus.commit.op_class_0::FloatAdd          328      0.00%     13.51% # Class of committed instruction
system.switch_cpus.commit.op_class_0::FloatCmp            0      0.00%     13.51% # Class of committed instruction
system.switch_cpus.commit.op_class_0::FloatCvt            0      0.00%     13.51% # Class of committed instruction
system.switch_cpus.commit.op_class_0::FloatMult            0      0.00%     13.51% # Class of committed instruction
system.switch_cpus.commit.op_class_0::FloatMultAcc            0      0.00%     13.51% # Class of committed instruction
system.switch_cpus.commit.op_class_0::FloatDiv            0      0.00%     13.51% # Class of committed instruction
system.switch_cpus.commit.op_class_0::FloatMisc            0      0.00%     13.51% # Class of committed instruction
system.switch_cpus.commit.op_class_0::FloatSqrt            0      0.00%     13.51% # Class of committed instruction
system.switch_cpus.commit.op_class_0::SimdAdd            0      0.00%     13.51% # Class of committed instruction
system.switch_cpus.commit.op_class_0::SimdAddAcc            0      0.00%     13.51% # Class of committed instruction
system.switch_cpus.commit.op_class_0::SimdAlu        47726      0.21%     13.72% # Class of committed instruction
system.switch_cpus.commit.op_class_0::SimdCmp            0      0.00%     13.72% # Class of committed instruction
system.switch_cpus.commit.op_class_0::SimdCvt            0      0.00%     13.72% # Class of committed instruction
system.switch_cpus.commit.op_class_0::SimdMisc            0      0.00%     13.72% # Class of committed instruction
system.switch_cpus.commit.op_class_0::SimdMult            0      0.00%     13.72% # Class of committed instruction
system.switch_cpus.commit.op_class_0::SimdMultAcc            0      0.00%     13.72% # Class of committed instruction
system.switch_cpus.commit.op_class_0::SimdShift            0      0.00%     13.72% # Class of committed instruction
system.switch_cpus.commit.op_class_0::SimdShiftAcc            0      0.00%     13.72% # Class of committed instruction
system.switch_cpus.commit.op_class_0::SimdDiv            0      0.00%     13.72% # Class of committed instruction
system.switch_cpus.commit.op_class_0::SimdSqrt            0      0.00%     13.72% # Class of committed instruction
system.switch_cpus.commit.op_class_0::SimdFloatAdd      5476711     24.37%     38.09% # Class of committed instruction
system.switch_cpus.commit.op_class_0::SimdFloatAlu            0      0.00%     38.09% # Class of committed instruction
system.switch_cpus.commit.op_class_0::SimdFloatCmp            0      0.00%     38.09% # Class of committed instruction
system.switch_cpus.commit.op_class_0::SimdFloatCvt            0      0.00%     38.09% # Class of committed instruction
system.switch_cpus.commit.op_class_0::SimdFloatDiv        11440      0.05%     38.14% # Class of committed instruction
system.switch_cpus.commit.op_class_0::SimdFloatMisc            0      0.00%     38.14% # Class of committed instruction
system.switch_cpus.commit.op_class_0::SimdFloatMult      4002296     17.81%     55.94% # Class of committed instruction
system.switch_cpus.commit.op_class_0::SimdFloatMultAcc            0      0.00%     55.94% # Class of committed instruction
system.switch_cpus.commit.op_class_0::SimdFloatSqrt            0      0.00%     55.94% # Class of committed instruction
system.switch_cpus.commit.op_class_0::SimdReduceAdd            0      0.00%     55.94% # Class of committed instruction
system.switch_cpus.commit.op_class_0::SimdReduceAlu            0      0.00%     55.94% # Class of committed instruction
system.switch_cpus.commit.op_class_0::SimdReduceCmp            0      0.00%     55.94% # Class of committed instruction
system.switch_cpus.commit.op_class_0::SimdFloatReduceAdd            0      0.00%     55.94% # Class of committed instruction
system.switch_cpus.commit.op_class_0::SimdFloatReduceCmp            0      0.00%     55.94% # Class of committed instruction
system.switch_cpus.commit.op_class_0::SimdAes            0      0.00%     55.94% # Class of committed instruction
system.switch_cpus.commit.op_class_0::SimdAesMix            0      0.00%     55.94% # Class of committed instruction
system.switch_cpus.commit.op_class_0::SimdSha1Hash            0      0.00%     55.94% # Class of committed instruction
system.switch_cpus.commit.op_class_0::SimdSha1Hash2            0      0.00%     55.94% # Class of committed instruction
system.switch_cpus.commit.op_class_0::SimdSha256Hash            0      0.00%     55.94% # Class of committed instruction
system.switch_cpus.commit.op_class_0::SimdSha256Hash2            0      0.00%     55.94% # Class of committed instruction
system.switch_cpus.commit.op_class_0::SimdShaSigma2            0      0.00%     55.94% # Class of committed instruction
system.switch_cpus.commit.op_class_0::SimdShaSigma3            0      0.00%     55.94% # Class of committed instruction
system.switch_cpus.commit.op_class_0::SimdPredAlu            0      0.00%     55.94% # Class of committed instruction
system.switch_cpus.commit.op_class_0::MemRead       657014      2.92%     58.87% # Class of committed instruction
system.switch_cpus.commit.op_class_0::MemWrite        55633      0.25%     59.11% # Class of committed instruction
system.switch_cpus.commit.op_class_0::FloatMemRead      6994118     31.12%     90.23% # Class of committed instruction
system.switch_cpus.commit.op_class_0::FloatMemWrite      2195966      9.77%    100.00% # Class of committed instruction
system.switch_cpus.commit.op_class_0::IprAccess            0      0.00%    100.00% # Class of committed instruction
system.switch_cpus.commit.op_class_0::InstPrefetch            0      0.00%    100.00% # Class of committed instruction
system.switch_cpus.commit.op_class_0::total     22477331                       # Class of committed instruction
system.switch_cpus.commit.refs                9902731                       # Number of memory references committed
system.switch_cpus.commit.swp_count                 0                       # Number of s/w prefetches committed
system.switch_cpus.commit.vec_insts                 0                       # Number of committed Vector instructions.
system.switch_cpus.committedInsts            10000000                       # Number of Instructions Simulated
system.switch_cpus.committedOps              22477331                       # Number of Ops (including micro ops) Simulated
system.switch_cpus.cpi                       1.592634                       # CPI: Cycles Per Instruction
system.switch_cpus.cpi_total                 1.592634                       # CPI: Total CPI of All Threads
system.switch_cpus.decode.BlockedCycles      12034002                       # Number of cycles decode is blocked
system.switch_cpus.decode.DecodedInsts       23108618                       # Number of instructions handled by decode
system.switch_cpus.decode.IdleCycles           749662                       # Number of cycles decode is idle
system.switch_cpus.decode.RunCycles           2499625                       # Number of cycles decode is running
system.switch_cpus.decode.SquashCycles           6079                       # Number of cycles decode is squashing
system.switch_cpus.decode.UnblockCycles        607220                       # Number of cycles decode is unblocking
system.switch_cpus.dtb.rdAccesses             7786292                       # TLB accesses on read requests
system.switch_cpus.dtb.rdMisses                  1513                       # TLB misses on read requests
system.switch_cpus.dtb.wrAccesses             2367896                       # TLB accesses on write requests
system.switch_cpus.dtb.wrMisses                   569                       # TLB misses on write requests
system.switch_cpus.fetch.Branches               45729                       # Number of branches that fetch encountered
system.switch_cpus.fetch.CacheLines           1084092                       # Number of cache lines fetched
system.switch_cpus.fetch.Cycles              14785895                       # Number of cycles fetch has run and was not squashing or blocked
system.switch_cpus.fetch.IcacheSquashes           132                       # Number of outstanding Icache misses that were squashed
system.switch_cpus.fetch.Insts               10473394                       # Number of instructions fetch has processed
system.switch_cpus.fetch.SquashCycles           12158                       # Number of cycles fetch has spent squashing
system.switch_cpus.fetch.branchRate          0.002871                       # Number of branch fetches per cycle
system.switch_cpus.fetch.icacheStallCycles      1104956                       # Number of cycles fetch is stalled on an Icache miss
system.switch_cpus.fetch.predictedBranches        33316                       # Number of branches that fetch has predicted taken
system.switch_cpus.fetch.rate                0.657615                       # Number of inst fetches per cycle
system.switch_cpus.fetch.rateDist::samples     15896930                       # Number of instructions fetched each cycle (Total)
system.switch_cpus.fetch.rateDist::mean      1.465989                       # Number of instructions fetched each cycle (Total)
system.switch_cpus.fetch.rateDist::stdev     2.950096                       # Number of instructions fetched each cycle (Total)
system.switch_cpus.fetch.rateDist::underflows            0      0.00%      0.00% # Number of instructions fetched each cycle (Total)
system.switch_cpus.fetch.rateDist::0         12421707     78.14%     78.14% # Number of instructions fetched each cycle (Total)
system.switch_cpus.fetch.rateDist::1           102715      0.65%     78.79% # Number of instructions fetched each cycle (Total)
system.switch_cpus.fetch.rateDist::2           215003      1.35%     80.14% # Number of instructions fetched each cycle (Total)
system.switch_cpus.fetch.rateDist::3           170157      1.07%     81.21% # Number of instructions fetched each cycle (Total)
system.switch_cpus.fetch.rateDist::4           174457      1.10%     82.31% # Number of instructions fetched each cycle (Total)
system.switch_cpus.fetch.rateDist::5           143361      0.90%     83.21% # Number of instructions fetched each cycle (Total)
system.switch_cpus.fetch.rateDist::6           218617      1.38%     84.58% # Number of instructions fetched each cycle (Total)
system.switch_cpus.fetch.rateDist::7            72107      0.45%     85.04% # Number of instructions fetched each cycle (Total)
system.switch_cpus.fetch.rateDist::8          2378806     14.96%    100.00% # Number of instructions fetched each cycle (Total)
system.switch_cpus.fetch.rateDist::overflows            0      0.00%    100.00% # Number of instructions fetched each cycle (Total)
system.switch_cpus.fetch.rateDist::min_value            0                       # Number of instructions fetched each cycle (Total)
system.switch_cpus.fetch.rateDist::max_value            8                       # Number of instructions fetched each cycle (Total)
system.switch_cpus.fetch.rateDist::total     15896930                       # Number of instructions fetched each cycle (Total)
system.switch_cpus.fp_regfile_reads          35989535                       # number of floating regfile reads
system.switch_cpus.fp_regfile_writes         19173318                       # number of floating regfile writes
system.switch_cpus.idleCycles                   29408                       # Total number of cycles that the CPU has spent unscheduled due to idling
system.switch_cpus.iew.branchMispredicts          819                       # Number of branch mispredicts detected at execute
system.switch_cpus.iew.exec_branches            37040                       # Number of branches executed
system.switch_cpus.iew.exec_nop                     0                       # number of nop insts executed
system.switch_cpus.iew.exec_rate             1.451725                       # Inst execution rate
system.switch_cpus.iew.exec_refs             10302950                       # number of memory reference insts executed
system.switch_cpus.iew.exec_stores            2367896                       # Number of stores executed
system.switch_cpus.iew.exec_swp                     0                       # number of swp insts executed
system.switch_cpus.iew.iewBlockCycles          439042                       # Number of cycles IEW is blocking
system.switch_cpus.iew.iewDispLoadInsts       7789927                       # Number of dispatched load instructions
system.switch_cpus.iew.iewDispNonSpecInsts            0                       # Number of dispatched non-speculative instructions
system.switch_cpus.iew.iewDispSquashedInsts           14                       # Number of squashed instructions skipped by dispatch
system.switch_cpus.iew.iewDispStoreInsts      2418869                       # Number of dispatched store instructions
system.switch_cpus.iew.iewDispatchedInsts     23042722                       # Number of instructions dispatched to IQ
system.switch_cpus.iew.iewExecLoadInsts       7935054                       # Number of load instructions executed
system.switch_cpus.iew.iewExecSquashedInsts         4621                       # Number of squashed instructions skipped in execute
system.switch_cpus.iew.iewExecutedInsts      23120660                       # Number of executed instructions
system.switch_cpus.iew.iewIQFullEvents           3877                       # Number of times the IQ has become full, causing a stall
system.switch_cpus.iew.iewIdleCycles                0                       # Number of cycles IEW is idle
system.switch_cpus.iew.iewLSQFullEvents       3990561                       # Number of times the LSQ has become full, causing a stall
system.switch_cpus.iew.iewSquashCycles           6079                       # Number of cycles IEW is squashing
system.switch_cpus.iew.iewUnblockCycles       4000084                       # Number of cycles IEW is unblocking
system.switch_cpus.iew.lsq.thread0.blockedLoads            0                       # Number of blocked loads due to partial load-store forwarding
system.switch_cpus.iew.lsq.thread0.cacheBlocked        26950                       # Number of times an access to memory failed due to the cache being blocked
system.switch_cpus.iew.lsq.thread0.forwLoads       572061                       # Number of loads that had data forwarded from stores
system.switch_cpus.iew.lsq.thread0.ignoredResponses           10                       # Number of memory responses ignored because the instruction is squashed
system.switch_cpus.iew.lsq.thread0.invAddrLoads            0                       # Number of loads ignored due to an invalid address
system.switch_cpus.iew.lsq.thread0.invAddrSwpfs            0                       # Number of software prefetches ignored due to an invalid address
system.switch_cpus.iew.lsq.thread0.memOrderViolation          258                       # Number of memory ordering violations
system.switch_cpus.iew.lsq.thread0.rescheduledLoads            0                       # Number of loads that were rescheduled
system.switch_cpus.iew.lsq.thread0.squashedLoads       138774                       # Number of loads squashed
system.switch_cpus.iew.lsq.thread0.squashedStores       167262                       # Number of stores squashed
system.switch_cpus.iew.memOrderViolationEvents          258                       # Number of memory order violations
system.switch_cpus.iew.predictedNotTakenIncorrect          127                       # Number of branches that were predicted not taken incorrectly
system.switch_cpus.iew.predictedTakenIncorrect          692                       # Number of branches that were predicted taken incorrectly
system.switch_cpus.iew.wb_consumers          28923667                       # num instructions consuming a value
system.switch_cpus.iew.wb_count              22921195                       # cumulative count of insts written-back
system.switch_cpus.iew.wb_fanout             0.605827                       # average fanout of values written-back
system.switch_cpus.iew.wb_producers          17522727                       # num instructions producing a value
system.switch_cpus.iew.wb_rate               1.439201                       # insts written-back per cycle
system.switch_cpus.iew.wb_sent               22964253                       # cumulative count of insts sent to commit
system.switch_cpus.int_regfile_reads         21279137                       # number of integer regfile reads
system.switch_cpus.int_regfile_writes         1345300                       # number of integer regfile writes
system.switch_cpus.ipc                       0.627891                       # IPC: Instructions Per Cycle
system.switch_cpus.ipc_total                 0.627891                       # IPC: Total IPC of All Threads
system.switch_cpus.iq.FU_type_0::No_OpClass        41150      0.18%      0.18% # Type of FU issued
system.switch_cpus.iq.FU_type_0::IntAlu       3237589     14.00%     14.18% # Type of FU issued
system.switch_cpus.iq.FU_type_0::IntMult          658      0.00%     14.18% # Type of FU issued
system.switch_cpus.iq.FU_type_0::IntDiv             0      0.00%     14.18% # Type of FU issued
system.switch_cpus.iq.FU_type_0::FloatAdd         2679      0.01%     14.19% # Type of FU issued
system.switch_cpus.iq.FU_type_0::FloatCmp            0      0.00%     14.19% # Type of FU issued
system.switch_cpus.iq.FU_type_0::FloatCvt            0      0.00%     14.19% # Type of FU issued
system.switch_cpus.iq.FU_type_0::FloatMult            0      0.00%     14.19% # Type of FU issued
system.switch_cpus.iq.FU_type_0::FloatMultAcc            0      0.00%     14.19% # Type of FU issued
system.switch_cpus.iq.FU_type_0::FloatDiv            0      0.00%     14.19% # Type of FU issued
system.switch_cpus.iq.FU_type_0::FloatMisc            0      0.00%     14.19% # Type of FU issued
system.switch_cpus.iq.FU_type_0::FloatSqrt            0      0.00%     14.19% # Type of FU issued
system.switch_cpus.iq.FU_type_0::SimdAdd            0      0.00%     14.19% # Type of FU issued
system.switch_cpus.iq.FU_type_0::SimdAddAcc            0      0.00%     14.19% # Type of FU issued
system.switch_cpus.iq.FU_type_0::SimdAlu        47766      0.21%     14.40% # Type of FU issued
system.switch_cpus.iq.FU_type_0::SimdCmp            0      0.00%     14.40% # Type of FU issued
system.switch_cpus.iq.FU_type_0::SimdCvt            0      0.00%     14.40% # Type of FU issued
system.switch_cpus.iq.FU_type_0::SimdMisc            0      0.00%     14.40% # Type of FU issued
system.switch_cpus.iq.FU_type_0::SimdMult            0      0.00%     14.40% # Type of FU issued
system.switch_cpus.iq.FU_type_0::SimdMultAcc            0      0.00%     14.40% # Type of FU issued
system.switch_cpus.iq.FU_type_0::SimdShift            0      0.00%     14.40% # Type of FU issued
system.switch_cpus.iq.FU_type_0::SimdShiftAcc            0      0.00%     14.40% # Type of FU issued
system.switch_cpus.iq.FU_type_0::SimdDiv            0      0.00%     14.40% # Type of FU issued
system.switch_cpus.iq.FU_type_0::SimdSqrt            0      0.00%     14.40% # Type of FU issued
system.switch_cpus.iq.FU_type_0::SimdFloatAdd      5476926     23.68%     38.08% # Type of FU issued
system.switch_cpus.iq.FU_type_0::SimdFloatAlu            0      0.00%     38.08% # Type of FU issued
system.switch_cpus.iq.FU_type_0::SimdFloatCmp            0      0.00%     38.08% # Type of FU issued
system.switch_cpus.iq.FU_type_0::SimdFloatCvt            0      0.00%     38.08% # Type of FU issued
system.switch_cpus.iq.FU_type_0::SimdFloatDiv        11440      0.05%     38.13% # Type of FU issued
system.switch_cpus.iq.FU_type_0::SimdFloatMisc            0      0.00%     38.13% # Type of FU issued
system.switch_cpus.iq.FU_type_0::SimdFloatMult      4002391     17.31%     55.44% # Type of FU issued
system.switch_cpus.iq.FU_type_0::SimdFloatMultAcc            0      0.00%     55.44% # Type of FU issued
system.switch_cpus.iq.FU_type_0::SimdFloatSqrt            0      0.00%     55.44% # Type of FU issued
system.switch_cpus.iq.FU_type_0::SimdReduceAdd            0      0.00%     55.44% # Type of FU issued
system.switch_cpus.iq.FU_type_0::SimdReduceAlu            0      0.00%     55.44% # Type of FU issued
system.switch_cpus.iq.FU_type_0::SimdReduceCmp            0      0.00%     55.44% # Type of FU issued
system.switch_cpus.iq.FU_type_0::SimdFloatReduceAdd            0      0.00%     55.44% # Type of FU issued
system.switch_cpus.iq.FU_type_0::SimdFloatReduceCmp            0      0.00%     55.44% # Type of FU issued
system.switch_cpus.iq.FU_type_0::SimdAes            0      0.00%     55.44% # Type of FU issued
system.switch_cpus.iq.FU_type_0::SimdAesMix            0      0.00%     55.44% # Type of FU issued
system.switch_cpus.iq.FU_type_0::SimdSha1Hash            0      0.00%     55.44% # Type of FU issued
system.switch_cpus.iq.FU_type_0::SimdSha1Hash2            0      0.00%     55.44% # Type of FU issued
system.switch_cpus.iq.FU_type_0::SimdSha256Hash            0      0.00%     55.44% # Type of FU issued
system.switch_cpus.iq.FU_type_0::SimdSha256Hash2            0      0.00%     55.44% # Type of FU issued
system.switch_cpus.iq.FU_type_0::SimdShaSigma2            0      0.00%     55.44% # Type of FU issued
system.switch_cpus.iq.FU_type_0::SimdShaSigma3            0      0.00%     55.44% # Type of FU issued
system.switch_cpus.iq.FU_type_0::SimdPredAlu            0      0.00%     55.44% # Type of FU issued
system.switch_cpus.iq.FU_type_0::MemRead       760015      3.29%     58.73% # Type of FU issued
system.switch_cpus.iq.FU_type_0::MemWrite        94661      0.41%     59.14% # Type of FU issued
system.switch_cpus.iq.FU_type_0::FloatMemRead      7176632     31.03%     90.17% # Type of FU issued
system.switch_cpus.iq.FU_type_0::FloatMemWrite      2273380      9.83%    100.00% # Type of FU issued
system.switch_cpus.iq.FU_type_0::IprAccess            0      0.00%    100.00% # Type of FU issued
system.switch_cpus.iq.FU_type_0::InstPrefetch            0      0.00%    100.00% # Type of FU issued
system.switch_cpus.iq.FU_type_0::total       23125287                       # Type of FU issued
system.switch_cpus.iq.fp_alu_accesses        22506632                       # Number of floating point alu accesses
system.switch_cpus.iq.fp_inst_queue_reads     44072461                       # Number of floating instruction queue reads
system.switch_cpus.iq.fp_inst_queue_wakeup_accesses     21444889                       # Number of floating instruction queue wakeup accesses
system.switch_cpus.iq.fp_inst_queue_writes     21671104                       # Number of floating instruction queue writes
system.switch_cpus.iq.fu_busy_cnt             1043179                       # FU busy when requested
system.switch_cpus.iq.fu_busy_rate           0.045110                       # FU busy rate (busy events/executed inst)
system.switch_cpus.iq.fu_full::No_OpClass            0      0.00%      0.00% # attempts to use FU when none available
system.switch_cpus.iq.fu_full::IntAlu             474      0.05%      0.05% # attempts to use FU when none available
system.switch_cpus.iq.fu_full::IntMult              0      0.00%      0.05% # attempts to use FU when none available
system.switch_cpus.iq.fu_full::IntDiv               0      0.00%      0.05% # attempts to use FU when none available
system.switch_cpus.iq.fu_full::FloatAdd             0      0.00%      0.05% # attempts to use FU when none available
system.switch_cpus.iq.fu_full::FloatCmp             0      0.00%      0.05% # attempts to use FU when none available
system.switch_cpus.iq.fu_full::FloatCvt             0      0.00%      0.05% # attempts to use FU when none available
system.switch_cpus.iq.fu_full::FloatMult            0      0.00%      0.05% # attempts to use FU when none available
system.switch_cpus.iq.fu_full::FloatMultAcc            0      0.00%      0.05% # attempts to use FU when none available
system.switch_cpus.iq.fu_full::FloatDiv             0      0.00%      0.05% # attempts to use FU when none available
system.switch_cpus.iq.fu_full::FloatMisc            0      0.00%      0.05% # attempts to use FU when none available
system.switch_cpus.iq.fu_full::FloatSqrt            0      0.00%      0.05% # attempts to use FU when none available
system.switch_cpus.iq.fu_full::SimdAdd              0      0.00%      0.05% # attempts to use FU when none available
system.switch_cpus.iq.fu_full::SimdAddAcc            0      0.00%      0.05% # attempts to use FU when none available
system.switch_cpus.iq.fu_full::SimdAlu              0      0.00%      0.05% # attempts to use FU when none available
system.switch_cpus.iq.fu_full::SimdCmp              0      0.00%      0.05% # attempts to use FU when none available
system.switch_cpus.iq.fu_full::SimdCvt              0      0.00%      0.05% # attempts to use FU when none available
system.switch_cpus.iq.fu_full::SimdMisc             0      0.00%      0.05% # attempts to use FU when none available
system.switch_cpus.iq.fu_full::SimdMult             0      0.00%      0.05% # attempts to use FU when none available
system.switch_cpus.iq.fu_full::SimdMultAcc            0      0.00%      0.05% # attempts to use FU when none available
system.switch_cpus.iq.fu_full::SimdShift            0      0.00%      0.05% # attempts to use FU when none available
system.switch_cpus.iq.fu_full::SimdShiftAcc            0      0.00%      0.05% # attempts to use FU when none available
system.switch_cpus.iq.fu_full::SimdDiv              0      0.00%      0.05% # attempts to use FU when none available
system.switch_cpus.iq.fu_full::SimdSqrt             0      0.00%      0.05% # attempts to use FU when none available
system.switch_cpus.iq.fu_full::SimdFloatAdd       121670     11.66%     11.71% # attempts to use FU when none available
system.switch_cpus.iq.fu_full::SimdFloatAlu            0      0.00%     11.71% # attempts to use FU when none available
system.switch_cpus.iq.fu_full::SimdFloatCmp            0      0.00%     11.71% # attempts to use FU when none available
system.switch_cpus.iq.fu_full::SimdFloatCvt            0      0.00%     11.71% # attempts to use FU when none available
system.switch_cpus.iq.fu_full::SimdFloatDiv            0      0.00%     11.71% # attempts to use FU when none available
system.switch_cpus.iq.fu_full::SimdFloatMisc            0      0.00%     11.71% # attempts to use FU when none available
system.switch_cpus.iq.fu_full::SimdFloatMult       262965     25.21%     36.92% # attempts to use FU when none available
system.switch_cpus.iq.fu_full::SimdFloatMultAcc            0      0.00%     36.92% # attempts to use FU when none available
system.switch_cpus.iq.fu_full::SimdFloatSqrt            0      0.00%     36.92% # attempts to use FU when none available
system.switch_cpus.iq.fu_full::SimdReduceAdd            0      0.00%     36.92% # attempts to use FU when none available
system.switch_cpus.iq.fu_full::SimdReduceAlu            0      0.00%     36.92% # attempts to use FU when none available
system.switch_cpus.iq.fu_full::SimdReduceCmp            0      0.00%     36.92% # attempts to use FU when none available
system.switch_cpus.iq.fu_full::SimdFloatReduceAdd            0      0.00%     36.92% # attempts to use FU when none available
system.switch_cpus.iq.fu_full::SimdFloatReduceCmp            0      0.00%     36.92% # attempts to use FU when none available
system.switch_cpus.iq.fu_full::SimdAes              0      0.00%     36.92% # attempts to use FU when none available
system.switch_cpus.iq.fu_full::SimdAesMix            0      0.00%     36.92% # attempts to use FU when none available
system.switch_cpus.iq.fu_full::SimdSha1Hash            0      0.00%     36.92% # attempts to use FU when none available
system.switch_cpus.iq.fu_full::SimdSha1Hash2            0      0.00%     36.92% # attempts to use FU when none available
system.switch_cpus.iq.fu_full::SimdSha256Hash            0      0.00%     36.92% # attempts to use FU when none available
system.switch_cpus.iq.fu_full::SimdSha256Hash2            0      0.00%     36.92% # attempts to use FU when none available
system.switch_cpus.iq.fu_full::SimdShaSigma2            0      0.00%     36.92% # attempts to use FU when none available
system.switch_cpus.iq.fu_full::SimdShaSigma3            0      0.00%     36.92% # attempts to use FU when none available
system.switch_cpus.iq.fu_full::SimdPredAlu            0      0.00%     36.92% # attempts to use FU when none available
system.switch_cpus.iq.fu_full::MemRead          89834      8.61%     45.53% # attempts to use FU when none available
system.switch_cpus.iq.fu_full::MemWrite         11679      1.12%     46.65% # attempts to use FU when none available
system.switch_cpus.iq.fu_full::FloatMemRead       500562     47.98%     94.63% # attempts to use FU when none available
system.switch_cpus.iq.fu_full::FloatMemWrite        55995      5.37%    100.00% # attempts to use FU when none available
system.switch_cpus.iq.fu_full::IprAccess            0      0.00%    100.00% # attempts to use FU when none available
system.switch_cpus.iq.fu_full::InstPrefetch            0      0.00%    100.00% # attempts to use FU when none available
system.switch_cpus.iq.int_alu_accesses        1620684                       # Number of integer alu accesses
system.switch_cpus.iq.int_inst_queue_reads     19118717                       # Number of integer instruction queue reads
system.switch_cpus.iq.int_inst_queue_wakeup_accesses      1476306                       # Number of integer instruction queue wakeup accesses
system.switch_cpus.iq.int_inst_queue_writes      1937215                       # Number of integer instruction queue writes
system.switch_cpus.iq.iqInstsAdded           23038877                       # Number of instructions added to the IQ (excludes non-spec)
system.switch_cpus.iq.iqInstsIssued          23125287                       # Number of instructions issued
system.switch_cpus.iq.iqNonSpecInstsAdded         3845                       # Number of non-speculative instructions added to the IQ
system.switch_cpus.iq.iqSquashedInstsExamined       565339                       # Number of squashed instructions iterated over during squash; mainly for profiling
system.switch_cpus.iq.iqSquashedInstsIssued          501                       # Number of squashed instructions issued
system.switch_cpus.iq.iqSquashedNonSpecRemoved         3525                       # Number of squashed non-spec instructions that were removed
system.switch_cpus.iq.iqSquashedOperandsExamined       271070                       # Number of squashed operands that are examined and possibly removed from graph
system.switch_cpus.iq.issued_per_cycle::samples     15896930                       # Number of insts issued each cycle
system.switch_cpus.iq.issued_per_cycle::mean     1.454701                       # Number of insts issued each cycle
system.switch_cpus.iq.issued_per_cycle::stdev     2.395047                       # Number of insts issued each cycle
system.switch_cpus.iq.issued_per_cycle::underflows            0      0.00%      0.00% # Number of insts issued each cycle
system.switch_cpus.iq.issued_per_cycle::0     10520175     66.18%     66.18% # Number of insts issued each cycle
system.switch_cpus.iq.issued_per_cycle::1       687131      4.32%     70.50% # Number of insts issued each cycle
system.switch_cpus.iq.issued_per_cycle::2       703946      4.43%     74.93% # Number of insts issued each cycle
system.switch_cpus.iq.issued_per_cycle::3       631382      3.97%     78.90% # Number of insts issued each cycle
system.switch_cpus.iq.issued_per_cycle::4       888882      5.59%     84.49% # Number of insts issued each cycle
system.switch_cpus.iq.issued_per_cycle::5       703036      4.42%     88.91% # Number of insts issued each cycle
system.switch_cpus.iq.issued_per_cycle::6       778913      4.90%     93.81% # Number of insts issued each cycle
system.switch_cpus.iq.issued_per_cycle::7       475788      2.99%     96.81% # Number of insts issued each cycle
system.switch_cpus.iq.issued_per_cycle::8       507677      3.19%    100.00% # Number of insts issued each cycle
system.switch_cpus.iq.issued_per_cycle::overflows            0      0.00%    100.00% # Number of insts issued each cycle
system.switch_cpus.iq.issued_per_cycle::min_value            0                       # Number of insts issued each cycle
system.switch_cpus.iq.issued_per_cycle::max_value            8                       # Number of insts issued each cycle
system.switch_cpus.iq.issued_per_cycle::total     15896930                       # Number of insts issued each cycle
system.switch_cpus.iq.rate                   1.452015                       # Inst issue rate
system.switch_cpus.iq.vec_alu_accesses              0                       # Number of vector alu accesses
system.switch_cpus.iq.vec_inst_queue_reads            0                       # Number of vector instruction queue reads
system.switch_cpus.iq.vec_inst_queue_wakeup_accesses            0                       # Number of vector instruction queue wakeup accesses
system.switch_cpus.iq.vec_inst_queue_writes            0                       # Number of vector instruction queue writes
system.switch_cpus.itb.rdAccesses                   0                       # TLB accesses on read requests
system.switch_cpus.itb.rdMisses                     0                       # TLB misses on read requests
system.switch_cpus.itb.wrAccesses             1084092                       # TLB accesses on write requests
system.switch_cpus.itb.wrMisses                    10                       # TLB misses on write requests
system.switch_cpus.memDep0.conflictingLoads        26673                       # Number of conflicting loads.
system.switch_cpus.memDep0.conflictingStores        98457                       # Number of conflicting stores.
system.switch_cpus.memDep0.insertedLoads      7789927                       # Number of loads inserted to the mem dependence unit.
system.switch_cpus.memDep0.insertedStores      2418869                       # Number of stores inserted to the mem dependence unit.
system.switch_cpus.misc_regfile_reads        10610783                       # number of misc regfile reads
system.switch_cpus.misc_regfile_writes              1                       # number of misc regfile writes
system.switch_cpus.numCycles                 15926338                       # number of cpu cycles simulated
system.switch_cpus.numWorkItemsCompleted            0                       # number of work items this cpu completed
system.switch_cpus.numWorkItemsStarted              0                       # number of work items this cpu started
system.switch_cpus.rename.BlockCycles         4517439                       # Number of cycles rename is blocking
system.switch_cpus.rename.CommittedMaps      20390922                       # Number of HB maps that are committed
system.switch_cpus.rename.IQFullEvents         175720                       # Number of times rename has blocked due to IQ full
system.switch_cpus.rename.IdleCycles          1025712                       # Number of cycles rename is idle
system.switch_cpus.rename.LQFullEvents        2619501                       # Number of times rename has blocked due to LQ full
system.switch_cpus.rename.ROBFullEvents         15686                       # Number of times rename has blocked due to ROB full
system.switch_cpus.rename.RenameLookups      67938399                       # Number of register rename lookups that rename has made
system.switch_cpus.rename.RenamedInsts       23064870                       # Number of instructions processed by rename
system.switch_cpus.rename.RenamedOperands     20906642                       # Number of destination operands rename has renamed
system.switch_cpus.rename.RunCycles           2822232                       # Number of cycles rename is running
system.switch_cpus.rename.SQFullEvents        4683218                       # Number of times rename has blocked due to SQ full
system.switch_cpus.rename.SquashCycles           6079                       # Number of cycles rename is squashing
system.switch_cpus.rename.UnblockCycles       7525126                       # Number of cycles rename is unblocking
system.switch_cpus.rename.UndoneMaps           515664                       # Number of HB maps that are undone due to squashing
system.switch_cpus.rename.fp_rename_lookups     36040423                       # Number of floating rename lookups
system.switch_cpus.rename.int_rename_lookups     21168399                       # Number of integer rename lookups
system.switch_cpus.rename.serializeStallCycles            0                       # count of cycles rename stalled for serializing inst
system.switch_cpus.rename.serializingInsts            0                       # count of serializing insts renamed
system.switch_cpus.rename.skidInsts           3751217                       # count of insts added to the skid buffer
system.switch_cpus.rename.tempSerializingInsts            0                       # count of temporary serializing insts renamed
system.switch_cpus.rob.rob_reads             37159618                       # The number of ROB reads
system.switch_cpus.rob.rob_writes            45955087                       # The number of ROB writes
system.switch_cpus.timesIdled                     351                       # Number of times that the entire CPU went into an idle state and unscheduled itself
system.tol2bus.snoop_filter.hit_multi_requests            0                       # Number of requests hitting in the snoop filter with multiple (>1) holders of the requested data.
system.tol2bus.snoop_filter.hit_multi_snoops            0                       # Number of snoops hitting in the snoop filter with multiple (>1) holders of the requested data.
system.tol2bus.snoop_filter.hit_single_requests       110708                       # Number of requests hitting in the snoop filter with a single holder of the requested data.
system.tol2bus.snoop_filter.hit_single_snoops        93433                       # Number of snoops hitting in the snoop filter with a single holder of the requested data.
system.tol2bus.snoop_filter.tot_requests       222721                       # Total number of requests made to the snoop filter.
system.tol2bus.snoop_filter.tot_snoops          93433                       # Total number of snoops made to the snoop filter.
system.membus.pwrStateResidencyTicks::UNDEFINED 560741990629500                       # Cumulative time (in ticks) in various power states
system.membus.trans_dist::ReadResp              70699                       # Transaction distribution
system.membus.trans_dist::WritebackDirty        27108                       # Transaction distribution
system.membus.trans_dist::CleanEvict            68490                       # Transaction distribution
system.membus.trans_dist::ReadExReq             27624                       # Transaction distribution
system.membus.trans_dist::ReadExResp            27624                       # Transaction distribution
system.membus.trans_dist::ReadSharedReq         70699                       # Transaction distribution
system.membus.pkt_count_system.l2.mem_side::system.mem_ctrls.port       292244                       # Packet count per connected master and slave (bytes)
system.membus.pkt_count_system.l2.mem_side::total       292244                       # Packet count per connected master and slave (bytes)
system.membus.pkt_count::total                 292244                       # Packet count per connected master and slave (bytes)
system.membus.pkt_size_system.l2.mem_side::system.mem_ctrls.port      8027584                       # Cumulative packet size per connected master and slave (bytes)
system.membus.pkt_size_system.l2.mem_side::total      8027584                       # Cumulative packet size per connected master and slave (bytes)
system.membus.pkt_size::total                 8027584                       # Cumulative packet size per connected master and slave (bytes)
system.membus.snoops                                0                       # Total snoops (count)
system.membus.snoopTraffic                          0                       # Total snoop traffic (bytes)
system.membus.snoop_fanout::samples             98323                       # Request fanout histogram
system.membus.snoop_fanout::mean                    0                       # Request fanout histogram
system.membus.snoop_fanout::stdev                   0                       # Request fanout histogram
system.membus.snoop_fanout::underflows              0      0.00%      0.00% # Request fanout histogram
system.membus.snoop_fanout::0                   98323    100.00%    100.00% # Request fanout histogram
system.membus.snoop_fanout::1                       0      0.00%    100.00% # Request fanout histogram
system.membus.snoop_fanout::overflows               0      0.00%    100.00% # Request fanout histogram
system.membus.snoop_fanout::min_value               0                       # Request fanout histogram
system.membus.snoop_fanout::max_value               0                       # Request fanout histogram
system.membus.snoop_fanout::total               98323                       # Request fanout histogram
system.membus.reqLayer2.occupancy           321885500                       # Layer occupancy (ticks)
system.membus.reqLayer2.utilization               4.0                       # Layer utilization (%)
system.membus.respLayer1.occupancy          542828000                       # Layer occupancy (ticks)
system.membus.respLayer1.utilization              6.8                       # Layer utilization (%)
system.switch_cpus.pwrStateResidencyTicks::OFF   7963179500                       # Cumulative time (in ticks) in various power states
system.switch_cpus.dtb.walker.pwrStateResidencyTicks::UNDEFINED 560741990629500                       # Cumulative time (in ticks) in various power states
system.switch_cpus.itb.walker.pwrStateResidencyTicks::UNDEFINED 560741990629500                       # Cumulative time (in ticks) in various power states
system.tol2bus.pwrStateResidencyTicks::UNDEFINED 560741990629500                       # Cumulative time (in ticks) in various power states
system.tol2bus.trans_dist::ReadResp             81127                       # Transaction distribution
system.tol2bus.trans_dist::WritebackDirty        66456                       # Transaction distribution
system.tol2bus.trans_dist::WritebackClean          116                       # Transaction distribution
system.tol2bus.trans_dist::CleanEvict          167250                       # Transaction distribution
system.tol2bus.trans_dist::ReadExReq            30886                       # Transaction distribution
system.tol2bus.trans_dist::ReadExResp           30886                       # Transaction distribution
system.tol2bus.trans_dist::ReadCleanReq           397                       # Transaction distribution
system.tol2bus.trans_dist::ReadSharedReq        80730                       # Transaction distribution
system.tol2bus.pkt_count_system.cpu.icache.mem_side::system.l2.cpu_side          910                       # Packet count per connected master and slave (bytes)
system.tol2bus.pkt_count_system.cpu.dcache.mem_side::system.l2.cpu_side       333824                       # Packet count per connected master and slave (bytes)
system.tol2bus.pkt_count::total                334734                       # Packet count per connected master and slave (bytes)
system.tol2bus.pkt_size_system.cpu.icache.mem_side::system.l2.cpu_side        32832                       # Cumulative packet size per connected master and slave (bytes)
system.tol2bus.pkt_size_system.cpu.dcache.mem_side::system.l2.cpu_side      9661696                       # Cumulative packet size per connected master and slave (bytes)
system.tol2bus.pkt_size::total                9694528                       # Cumulative packet size per connected master and slave (bytes)
system.tol2bus.snoops                          123114                       # Total snoops (count)
system.tol2bus.snoopTraffic                   1734912                       # Total snoop traffic (bytes)
system.tol2bus.snoop_fanout::samples           235127                       # Request fanout histogram
system.tol2bus.snoop_fanout::mean            0.397372                       # Request fanout histogram
system.tol2bus.snoop_fanout::stdev           0.489355                       # Request fanout histogram
system.tol2bus.snoop_fanout::underflows             0      0.00%      0.00% # Request fanout histogram
system.tol2bus.snoop_fanout::0                 141694     60.26%     60.26% # Request fanout histogram
system.tol2bus.snoop_fanout::1                  93433     39.74%    100.00% # Request fanout histogram
system.tol2bus.snoop_fanout::2                      0      0.00%    100.00% # Request fanout histogram
system.tol2bus.snoop_fanout::3                      0      0.00%    100.00% # Request fanout histogram
system.tol2bus.snoop_fanout::4                      0      0.00%    100.00% # Request fanout histogram
system.tol2bus.snoop_fanout::overflows              0      0.00%    100.00% # Request fanout histogram
system.tol2bus.snoop_fanout::min_value              0                       # Request fanout histogram
system.tol2bus.snoop_fanout::max_value              1                       # Request fanout histogram
system.tol2bus.snoop_fanout::total             235127                       # Request fanout histogram
system.tol2bus.reqLayer0.occupancy          150822000                       # Layer occupancy (ticks)
system.tol2bus.reqLayer0.utilization              1.9                       # Layer utilization (%)
system.tol2bus.respLayer1.occupancy         167419500                       # Layer occupancy (ticks)
system.tol2bus.respLayer1.utilization             2.1                       # Layer utilization (%)
system.tol2bus.respLayer0.occupancy            593498                       # Layer occupancy (ticks)
system.tol2bus.respLayer0.utilization             0.0                       # Layer utilization (%)
system.voltage_domain.voltage                       1                       # Voltage in Volts
system.clk_domain.clock                          1000                       # Clock period in ticks
system.l2.pwrStateResidencyTicks::UNDEFINED 560741990629500                       # Cumulative time (in ticks) in various power states
system.l2.demand_hits::.switch_cpus.inst           93                       # number of demand (read+write) hits
system.l2.demand_hits::.switch_cpus.data        13597                       # number of demand (read+write) hits
system.l2.demand_hits::total                    13690                       # number of demand (read+write) hits
system.l2.overall_hits::.switch_cpus.inst           93                       # number of overall hits
system.l2.overall_hits::.switch_cpus.data        13597                       # number of overall hits
system.l2.overall_hits::total                   13690                       # number of overall hits
system.l2.demand_misses::.cpu.inst                  2                       # number of demand (read+write) misses
system.l2.demand_misses::.cpu.data                  3                       # number of demand (read+write) misses
system.l2.demand_misses::.switch_cpus.inst          302                       # number of demand (read+write) misses
system.l2.demand_misses::.switch_cpus.data        98016                       # number of demand (read+write) misses
system.l2.demand_misses::total                  98323                       # number of demand (read+write) misses
system.l2.overall_misses::.cpu.inst                 2                       # number of overall misses
system.l2.overall_misses::.cpu.data                 3                       # number of overall misses
system.l2.overall_misses::.switch_cpus.inst          302                       # number of overall misses
system.l2.overall_misses::.switch_cpus.data        98016                       # number of overall misses
system.l2.overall_misses::total                 98323                       # number of overall misses
system.l2.demand_miss_latency::.switch_cpus.inst     23040500                       # number of demand (read+write) miss cycles
system.l2.demand_miss_latency::.switch_cpus.data   9856183500                       # number of demand (read+write) miss cycles
system.l2.demand_miss_latency::total       9879224000                       # number of demand (read+write) miss cycles
system.l2.overall_miss_latency::.switch_cpus.inst     23040500                       # number of overall miss cycles
system.l2.overall_miss_latency::.switch_cpus.data   9856183500                       # number of overall miss cycles
system.l2.overall_miss_latency::total      9879224000                       # number of overall miss cycles
system.l2.demand_accesses::.cpu.inst                2                       # number of demand (read+write) accesses
system.l2.demand_accesses::.cpu.data                3                       # number of demand (read+write) accesses
system.l2.demand_accesses::.switch_cpus.inst          395                       # number of demand (read+write) accesses
system.l2.demand_accesses::.switch_cpus.data       111613                       # number of demand (read+write) accesses
system.l2.demand_accesses::total               112013                       # number of demand (read+write) accesses
system.l2.overall_accesses::.cpu.inst               2                       # number of overall (read+write) accesses
system.l2.overall_accesses::.cpu.data               3                       # number of overall (read+write) accesses
system.l2.overall_accesses::.switch_cpus.inst          395                       # number of overall (read+write) accesses
system.l2.overall_accesses::.switch_cpus.data       111613                       # number of overall (read+write) accesses
system.l2.overall_accesses::total              112013                       # number of overall (read+write) accesses
system.l2.demand_miss_rate::.cpu.inst               1                       # miss rate for demand accesses
system.l2.demand_miss_rate::.cpu.data               1                       # miss rate for demand accesses
system.l2.demand_miss_rate::.switch_cpus.inst     0.764557                       # miss rate for demand accesses
system.l2.demand_miss_rate::.switch_cpus.data     0.878177                       # miss rate for demand accesses
system.l2.demand_miss_rate::total            0.877782                       # miss rate for demand accesses
system.l2.overall_miss_rate::.cpu.inst              1                       # miss rate for overall accesses
system.l2.overall_miss_rate::.cpu.data              1                       # miss rate for overall accesses
system.l2.overall_miss_rate::.switch_cpus.inst     0.764557                       # miss rate for overall accesses
system.l2.overall_miss_rate::.switch_cpus.data     0.878177                       # miss rate for overall accesses
system.l2.overall_miss_rate::total           0.877782                       # miss rate for overall accesses
system.l2.demand_avg_miss_latency::.switch_cpus.inst 76293.046358                       # average overall miss latency
system.l2.demand_avg_miss_latency::.switch_cpus.data 100556.883570                       # average overall miss latency
system.l2.demand_avg_miss_latency::total 100477.243371                       # average overall miss latency
system.l2.overall_avg_miss_latency::.switch_cpus.inst 76293.046358                       # average overall miss latency
system.l2.overall_avg_miss_latency::.switch_cpus.data 100556.883570                       # average overall miss latency
system.l2.overall_avg_miss_latency::total 100477.243371                       # average overall miss latency
system.l2.blocked_cycles::no_mshrs                  0                       # number of cycles access was blocked
system.l2.blocked_cycles::no_targets                0                       # number of cycles access was blocked
system.l2.blocked::no_mshrs                         0                       # number of cycles access was blocked
system.l2.blocked::no_targets                       0                       # number of cycles access was blocked
system.l2.avg_blocked_cycles::no_mshrs            nan                       # average number of cycles each access was blocked
system.l2.avg_blocked_cycles::no_targets          nan                       # average number of cycles each access was blocked
system.l2.writebacks::.writebacks               27108                       # number of writebacks
system.l2.writebacks::total                     27108                       # number of writebacks
system.l2.demand_mshr_misses::.switch_cpus.inst          302                       # number of demand (read+write) MSHR misses
system.l2.demand_mshr_misses::.switch_cpus.data        98016                       # number of demand (read+write) MSHR misses
system.l2.demand_mshr_misses::total             98318                       # number of demand (read+write) MSHR misses
system.l2.overall_mshr_misses::.switch_cpus.inst          302                       # number of overall MSHR misses
system.l2.overall_mshr_misses::.switch_cpus.data        98016                       # number of overall MSHR misses
system.l2.overall_mshr_misses::total            98318                       # number of overall MSHR misses
system.l2.demand_mshr_miss_latency::.switch_cpus.inst     20020500                       # number of demand (read+write) MSHR miss cycles
system.l2.demand_mshr_miss_latency::.switch_cpus.data   8876023500                       # number of demand (read+write) MSHR miss cycles
system.l2.demand_mshr_miss_latency::total   8896044000                       # number of demand (read+write) MSHR miss cycles
system.l2.overall_mshr_miss_latency::.switch_cpus.inst     20020500                       # number of overall MSHR miss cycles
system.l2.overall_mshr_miss_latency::.switch_cpus.data   8876023500                       # number of overall MSHR miss cycles
system.l2.overall_mshr_miss_latency::total   8896044000                       # number of overall MSHR miss cycles
system.l2.demand_mshr_miss_rate::.switch_cpus.inst     0.764557                       # mshr miss rate for demand accesses
system.l2.demand_mshr_miss_rate::.switch_cpus.data     0.878177                       # mshr miss rate for demand accesses
system.l2.demand_mshr_miss_rate::total       0.877737                       # mshr miss rate for demand accesses
system.l2.overall_mshr_miss_rate::.switch_cpus.inst     0.764557                       # mshr miss rate for overall accesses
system.l2.overall_mshr_miss_rate::.switch_cpus.data     0.878177                       # mshr miss rate for overall accesses
system.l2.overall_mshr_miss_rate::total      0.877737                       # mshr miss rate for overall accesses
system.l2.demand_avg_mshr_miss_latency::.switch_cpus.inst 66293.046358                       # average overall mshr miss latency
system.l2.demand_avg_mshr_miss_latency::.switch_cpus.data 90556.883570                       # average overall mshr miss latency
system.l2.demand_avg_mshr_miss_latency::total 90482.353180                       # average overall mshr miss latency
system.l2.overall_avg_mshr_miss_latency::.switch_cpus.inst 66293.046358                       # average overall mshr miss latency
system.l2.overall_avg_mshr_miss_latency::.switch_cpus.data 90556.883570                       # average overall mshr miss latency
system.l2.overall_avg_mshr_miss_latency::total 90482.353180                       # average overall mshr miss latency
system.l2.replacements                         123114                       # number of replacements
system.l2.WritebackDirty_hits::.writebacks        39348                       # number of WritebackDirty hits
system.l2.WritebackDirty_hits::total            39348                       # number of WritebackDirty hits
system.l2.WritebackDirty_accesses::.writebacks        39348                       # number of WritebackDirty accesses(hits+misses)
system.l2.WritebackDirty_accesses::total        39348                       # number of WritebackDirty accesses(hits+misses)
system.l2.WritebackClean_hits::.writebacks          116                       # number of WritebackClean hits
system.l2.WritebackClean_hits::total              116                       # number of WritebackClean hits
system.l2.WritebackClean_accesses::.writebacks          116                       # number of WritebackClean accesses(hits+misses)
system.l2.WritebackClean_accesses::total          116                       # number of WritebackClean accesses(hits+misses)
system.l2.CleanEvict_mshr_misses::.writebacks        65917                       # number of CleanEvict MSHR misses
system.l2.CleanEvict_mshr_misses::total         65917                       # number of CleanEvict MSHR misses
system.l2.CleanEvict_mshr_miss_rate::.writebacks          inf                       # mshr miss rate for CleanEvict accesses
system.l2.CleanEvict_mshr_miss_rate::total          inf                       # mshr miss rate for CleanEvict accesses
system.l2.ReadExReq_hits::.switch_cpus.data         3262                       # number of ReadExReq hits
system.l2.ReadExReq_hits::total                  3262                       # number of ReadExReq hits
system.l2.ReadExReq_misses::.cpu.data               2                       # number of ReadExReq misses
system.l2.ReadExReq_misses::.switch_cpus.data        27622                       # number of ReadExReq misses
system.l2.ReadExReq_misses::total               27624                       # number of ReadExReq misses
system.l2.ReadExReq_miss_latency::.switch_cpus.data   2698234500                       # number of ReadExReq miss cycles
system.l2.ReadExReq_miss_latency::total    2698234500                       # number of ReadExReq miss cycles
system.l2.ReadExReq_accesses::.cpu.data             2                       # number of ReadExReq accesses(hits+misses)
system.l2.ReadExReq_accesses::.switch_cpus.data        30884                       # number of ReadExReq accesses(hits+misses)
system.l2.ReadExReq_accesses::total             30886                       # number of ReadExReq accesses(hits+misses)
system.l2.ReadExReq_miss_rate::.cpu.data            1                       # miss rate for ReadExReq accesses
system.l2.ReadExReq_miss_rate::.switch_cpus.data     0.894379                       # miss rate for ReadExReq accesses
system.l2.ReadExReq_miss_rate::total         0.894386                       # miss rate for ReadExReq accesses
system.l2.ReadExReq_avg_miss_latency::.switch_cpus.data 97684.255304                       # average ReadExReq miss latency
system.l2.ReadExReq_avg_miss_latency::total 97677.182884                       # average ReadExReq miss latency
system.l2.ReadExReq_mshr_misses::.switch_cpus.data        27622                       # number of ReadExReq MSHR misses
system.l2.ReadExReq_mshr_misses::total          27622                       # number of ReadExReq MSHR misses
system.l2.ReadExReq_mshr_miss_latency::.switch_cpus.data   2422014500                       # number of ReadExReq MSHR miss cycles
system.l2.ReadExReq_mshr_miss_latency::total   2422014500                       # number of ReadExReq MSHR miss cycles
system.l2.ReadExReq_mshr_miss_rate::.switch_cpus.data     0.894379                       # mshr miss rate for ReadExReq accesses
system.l2.ReadExReq_mshr_miss_rate::total     0.894321                       # mshr miss rate for ReadExReq accesses
system.l2.ReadExReq_avg_mshr_miss_latency::.switch_cpus.data 87684.255304                       # average ReadExReq mshr miss latency
system.l2.ReadExReq_avg_mshr_miss_latency::total 87684.255304                       # average ReadExReq mshr miss latency
system.l2.ReadCleanReq_hits::.switch_cpus.inst           93                       # number of ReadCleanReq hits
system.l2.ReadCleanReq_hits::total                 93                       # number of ReadCleanReq hits
system.l2.ReadCleanReq_misses::.cpu.inst            2                       # number of ReadCleanReq misses
system.l2.ReadCleanReq_misses::.switch_cpus.inst          302                       # number of ReadCleanReq misses
system.l2.ReadCleanReq_misses::total              304                       # number of ReadCleanReq misses
system.l2.ReadCleanReq_miss_latency::.switch_cpus.inst     23040500                       # number of ReadCleanReq miss cycles
system.l2.ReadCleanReq_miss_latency::total     23040500                       # number of ReadCleanReq miss cycles
system.l2.ReadCleanReq_accesses::.cpu.inst            2                       # number of ReadCleanReq accesses(hits+misses)
system.l2.ReadCleanReq_accesses::.switch_cpus.inst          395                       # number of ReadCleanReq accesses(hits+misses)
system.l2.ReadCleanReq_accesses::total            397                       # number of ReadCleanReq accesses(hits+misses)
system.l2.ReadCleanReq_miss_rate::.cpu.inst            1                       # miss rate for ReadCleanReq accesses
system.l2.ReadCleanReq_miss_rate::.switch_cpus.inst     0.764557                       # miss rate for ReadCleanReq accesses
system.l2.ReadCleanReq_miss_rate::total      0.765743                       # miss rate for ReadCleanReq accesses
system.l2.ReadCleanReq_avg_miss_latency::.switch_cpus.inst 76293.046358                       # average ReadCleanReq miss latency
system.l2.ReadCleanReq_avg_miss_latency::total 75791.118421                       # average ReadCleanReq miss latency
[...]
system.cpu.dtb_walker_cache.pwrStateResidencyTicks::UNDEFINED 560765839112500                       # Cumulative time (in ticks) in various power states
system.cpu.dtb_walker_cache.blocked_cycles::no_mshrs            0                       # number of cycles access was blocked
system.cpu.dtb_walker_cache.blocked_cycles::no_targets            0                       # number of cycles access was blocked
system.cpu.dtb_walker_cache.blocked::no_mshrs            0                       # number of cycles access was blocked
system.cpu.dtb_walker_cache.blocked::no_targets            0                       # number of cycles access was blocked
system.cpu.dtb_walker_cache.avg_blocked_cycles::no_mshrs          nan                       # average number of cycles each access was blocked
system.cpu.dtb_walker_cache.avg_blocked_cycles::no_targets          nan                       # average number of cycles each access was blocked
system.cpu.dtb_walker_cache.replacements            0                       # number of replacements
system.cpu.dtb_walker_cache.tags.pwrStateResidencyTicks::UNDEFINED 560765839112500                       # Cumulative time (in ticks) in various power states
system.cpu.dtb_walker_cache.tags.tagsinuse            0                       # Cycle average of tags in use
system.cpu.dtb_walker_cache.tags.total_refs            0                       # Total number of references to valid blocks.
system.cpu.dtb_walker_cache.tags.sampled_refs            0                       # Sample count of references to valid blocks.
system.cpu.dtb_walker_cache.tags.avg_refs          nan                       # Average number of references to valid blocks.
system.cpu.dtb_walker_cache.tags.warmup_cycle            0                       # Cycle when the warmup percentage was hit.
system.cpu.dtb_walker_cache.tags.tag_accesses            0                       # Number of tag accesses
system.cpu.dtb_walker_cache.tags.data_accesses            0                       # Number of data accesses
system.cpu.dcache.pwrStateResidencyTicks::UNDEFINED 560765839112500                       # Cumulative time (in ticks) in various power states
system.cpu.dcache.demand_hits::.cpu.data            3                       # number of demand (read+write) hits
system.cpu.dcache.demand_hits::.switch_cpus.data     37024120                       # number of demand (read+write) hits
system.cpu.dcache.demand_hits::total         37024123                       # number of demand (read+write) hits
system.cpu.dcache.overall_hits::.cpu.data            3                       # number of overall hits
system.cpu.dcache.overall_hits::.switch_cpus.data     37084927                       # number of overall hits
system.cpu.dcache.overall_hits::total        37084930                       # number of overall hits
system.cpu.dcache.demand_misses::.cpu.data            3                       # number of demand (read+write) misses
system.cpu.dcache.demand_misses::.switch_cpus.data       656166                       # number of demand (read+write) misses
system.cpu.dcache.demand_misses::total         656169                       # number of demand (read+write) misses
system.cpu.dcache.overall_misses::.cpu.data            3                       # number of overall misses
system.cpu.dcache.overall_misses::.switch_cpus.data       668883                       # number of overall misses
system.cpu.dcache.overall_misses::total        668886                       # number of overall misses
system.cpu.dcache.demand_miss_latency::.switch_cpus.data  57127021480                       # number of demand (read+write) miss cycles
system.cpu.dcache.demand_miss_latency::total  57127021480                       # number of demand (read+write) miss cycles
system.cpu.dcache.overall_miss_latency::.switch_cpus.data  57127021480                       # number of overall miss cycles
system.cpu.dcache.overall_miss_latency::total  57127021480                       # number of overall miss cycles
system.cpu.dcache.demand_accesses::.cpu.data            6                       # number of demand (read+write) accesses
system.cpu.dcache.demand_accesses::.switch_cpus.data     37680286                       # number of demand (read+write) accesses
system.cpu.dcache.demand_accesses::total     37680292                       # number of demand (read+write) accesses
system.cpu.dcache.overall_accesses::.cpu.data            6                       # number of overall (read+write) accesses
system.cpu.dcache.overall_accesses::.switch_cpus.data     37753810                       # number of overall (read+write) accesses
system.cpu.dcache.overall_accesses::total     37753816                       # number of overall (read+write) accesses
system.cpu.dcache.demand_miss_rate::.cpu.data     0.500000                       # miss rate for demand accesses
system.cpu.dcache.demand_miss_rate::.switch_cpus.data     0.017414                       # miss rate for demand accesses
system.cpu.dcache.demand_miss_rate::total     0.017414                       # miss rate for demand accesses
system.cpu.dcache.overall_miss_rate::.cpu.data     0.500000                       # miss rate for overall accesses
system.cpu.dcache.overall_miss_rate::.switch_cpus.data     0.017717                       # miss rate for overall accesses
system.cpu.dcache.overall_miss_rate::total     0.017717                       # miss rate for overall accesses
system.cpu.dcache.demand_avg_miss_latency::.switch_cpus.data 87061.843314                       # average overall miss latency
system.cpu.dcache.demand_avg_miss_latency::total 87061.445268                       # average overall miss latency
system.cpu.dcache.overall_avg_miss_latency::.switch_cpus.data 85406.597985                       # average overall miss latency
system.cpu.dcache.overall_avg_miss_latency::total 85406.214930                       # average overall miss latency
system.cpu.dcache.blocked_cycles::no_mshrs      7660653                       # number of cycles access was blocked
system.cpu.dcache.blocked_cycles::no_targets          476                       # number of cycles access was blocked
system.cpu.dcache.blocked::no_mshrs            111690                       # number of cycles access was blocked
system.cpu.dcache.blocked::no_targets               1                       # number of cycles access was blocked
system.cpu.dcache.avg_blocked_cycles::no_mshrs    68.588531                       # average number of cycles each access was blocked
system.cpu.dcache.avg_blocked_cycles::no_targets          476                       # average number of cycles each access was blocked
system.cpu.dcache.writebacks::.writebacks       171291                       # number of writebacks
system.cpu.dcache.writebacks::total            171291                       # number of writebacks
system.cpu.dcache.demand_mshr_hits::.switch_cpus.data       212809                       # number of demand (read+write) MSHR hits
system.cpu.dcache.demand_mshr_hits::total       212809                       # number of demand (read+write) MSHR hits
system.cpu.dcache.overall_mshr_hits::.switch_cpus.data       212809                       # number of overall MSHR hits
system.cpu.dcache.overall_mshr_hits::total       212809                       # number of overall MSHR hits
system.cpu.dcache.demand_mshr_misses::.switch_cpus.data       443357                       # number of demand (read+write) MSHR misses
system.cpu.dcache.demand_mshr_misses::total       443357                       # number of demand (read+write) MSHR misses
system.cpu.dcache.overall_mshr_misses::.switch_cpus.data       448797                       # number of overall MSHR misses
system.cpu.dcache.overall_mshr_misses::total       448797                       # number of overall MSHR misses
system.cpu.dcache.demand_mshr_miss_latency::.switch_cpus.data  39747599480                       # number of demand (read+write) MSHR miss cycles
system.cpu.dcache.demand_mshr_miss_latency::total  39747599480                       # number of demand (read+write) MSHR miss cycles
system.cpu.dcache.overall_mshr_miss_latency::.switch_cpus.data  40227225980                       # number of overall MSHR miss cycles
system.cpu.dcache.overall_mshr_miss_latency::total  40227225980                       # number of overall MSHR miss cycles
system.cpu.dcache.demand_mshr_miss_rate::.switch_cpus.data     0.011766                       # mshr miss rate for demand accesses
system.cpu.dcache.demand_mshr_miss_rate::total     0.011766                       # mshr miss rate for demand accesses
system.cpu.dcache.overall_mshr_miss_rate::.switch_cpus.data     0.011887                       # mshr miss rate for overall accesses
system.cpu.dcache.overall_mshr_miss_rate::total     0.011887                       # mshr miss rate for overall accesses
system.cpu.dcache.demand_avg_mshr_miss_latency::.switch_cpus.data 89651.453524                       # average overall mshr miss latency
system.cpu.dcache.demand_avg_mshr_miss_latency::total 89651.453524                       # average overall mshr miss latency
system.cpu.dcache.overall_avg_mshr_miss_latency::.switch_cpus.data 89633.455616                       # average overall mshr miss latency
system.cpu.dcache.overall_avg_mshr_miss_latency::total 89633.455616                       # average overall mshr miss latency
system.cpu.dcache.replacements                 447776                       # number of replacements
system.cpu.dcache.ReadReq_hits::.cpu.data            1                       # number of ReadReq hits
system.cpu.dcache.ReadReq_hits::.switch_cpus.data     28169208                       # number of ReadReq hits
system.cpu.dcache.ReadReq_hits::total        28169209                       # number of ReadReq hits
system.cpu.dcache.ReadReq_misses::.cpu.data            1                       # number of ReadReq misses
system.cpu.dcache.ReadReq_misses::.switch_cpus.data       528361                       # number of ReadReq misses
system.cpu.dcache.ReadReq_misses::total        528362                       # number of ReadReq misses
system.cpu.dcache.ReadReq_miss_latency::.switch_cpus.data  45662960000                       # number of ReadReq miss cycles
system.cpu.dcache.ReadReq_miss_latency::total  45662960000                       # number of ReadReq miss cycles
system.cpu.dcache.ReadReq_accesses::.cpu.data            2                       # number of ReadReq accesses(hits+misses)
system.cpu.dcache.ReadReq_accesses::.switch_cpus.data     28697569                       # number of ReadReq accesses(hits+misses)
system.cpu.dcache.ReadReq_accesses::total     28697571                       # number of ReadReq accesses(hits+misses)
system.cpu.dcache.ReadReq_miss_rate::.cpu.data     0.500000                       # miss rate for ReadReq accesses
system.cpu.dcache.ReadReq_miss_rate::.switch_cpus.data     0.018411                       # miss rate for ReadReq accesses
system.cpu.dcache.ReadReq_miss_rate::total     0.018411                       # miss rate for ReadReq accesses
system.cpu.dcache.ReadReq_avg_miss_latency::.switch_cpus.data 86423.789795                       # average ReadReq miss latency
system.cpu.dcache.ReadReq_avg_miss_latency::total 86423.626226                       # average ReadReq miss latency
system.cpu.dcache.ReadReq_mshr_hits::.switch_cpus.data       212709                       # number of ReadReq MSHR hits
system.cpu.dcache.ReadReq_mshr_hits::total       212709                       # number of ReadReq MSHR hits
system.cpu.dcache.ReadReq_mshr_misses::.switch_cpus.data       315652                       # number of ReadReq MSHR misses
system.cpu.dcache.ReadReq_mshr_misses::total       315652                       # number of ReadReq MSHR misses
system.cpu.dcache.ReadReq_mshr_miss_latency::.switch_cpus.data  28412333500                       # number of ReadReq MSHR miss cycles
system.cpu.dcache.ReadReq_mshr_miss_latency::total  28412333500                       # number of ReadReq MSHR miss cycles
system.cpu.dcache.ReadReq_mshr_miss_rate::.switch_cpus.data     0.010999                       # mshr miss rate for ReadReq accesses
system.cpu.dcache.ReadReq_mshr_miss_rate::total     0.010999                       # mshr miss rate for ReadReq accesses
system.cpu.dcache.ReadReq_avg_mshr_miss_latency::.switch_cpus.data 90011.574455                       # average ReadReq mshr miss latency
system.cpu.dcache.ReadReq_avg_mshr_miss_latency::total 90011.574455                       # average ReadReq mshr miss latency
system.cpu.dcache.WriteReq_hits::.cpu.data            2                       # number of WriteReq hits
system.cpu.dcache.WriteReq_hits::.switch_cpus.data      8854912                       # number of WriteReq hits
system.cpu.dcache.WriteReq_hits::total        8854914                       # number of WriteReq hits
system.cpu.dcache.WriteReq_misses::.cpu.data            2                       # number of WriteReq misses
system.cpu.dcache.WriteReq_misses::.switch_cpus.data       127805                       # number of WriteReq misses
system.cpu.dcache.WriteReq_misses::total       127807                       # number of WriteReq misses
system.cpu.dcache.WriteReq_miss_latency::.switch_cpus.data  11464061480                       # number of WriteReq miss cycles
system.cpu.dcache.WriteReq_miss_latency::total  11464061480                       # number of WriteReq miss cycles
system.cpu.dcache.WriteReq_accesses::.cpu.data            4                       # number of WriteReq accesses(hits+misses)
system.cpu.dcache.WriteReq_accesses::.switch_cpus.data      8982717                       # number of WriteReq accesses(hits+misses)
system.cpu.dcache.WriteReq_accesses::total      8982721                       # number of WriteReq accesses(hits+misses)
system.cpu.dcache.WriteReq_miss_rate::.cpu.data     0.500000                       # miss rate for WriteReq accesses
system.cpu.dcache.WriteReq_miss_rate::.switch_cpus.data     0.014228                       # miss rate for WriteReq accesses
system.cpu.dcache.WriteReq_miss_rate::total     0.014228                       # miss rate for WriteReq accesses
system.cpu.dcache.WriteReq_avg_miss_latency::.switch_cpus.data 89699.632096                       # average WriteReq miss latency
system.cpu.dcache.WriteReq_avg_miss_latency::total 89698.228423                       # average WriteReq miss latency
system.cpu.dcache.WriteReq_mshr_hits::.switch_cpus.data          100                       # number of WriteReq MSHR hits
system.cpu.dcache.WriteReq_mshr_hits::total          100                       # number of WriteReq MSHR hits
system.cpu.dcache.WriteReq_mshr_misses::.switch_cpus.data       127705                       # number of WriteReq MSHR misses
system.cpu.dcache.WriteReq_mshr_misses::total       127705                       # number of WriteReq MSHR misses
system.cpu.dcache.WriteReq_mshr_miss_latency::.switch_cpus.data  11335265980                       # number of WriteReq MSHR miss cycles
system.cpu.dcache.WriteReq_mshr_miss_latency::total  11335265980                       # number of WriteReq MSHR miss cycles
system.cpu.dcache.WriteReq_mshr_miss_rate::.switch_cpus.data     0.014217                       # mshr miss rate for WriteReq accesses
system.cpu.dcache.WriteReq_mshr_miss_rate::total     0.014217                       # mshr miss rate for WriteReq accesses
system.cpu.dcache.WriteReq_avg_mshr_miss_latency::.switch_cpus.data 88761.332602                       # average WriteReq mshr miss latency
system.cpu.dcache.WriteReq_avg_mshr_miss_latency::total 88761.332602                       # average WriteReq mshr miss latency
system.cpu.dcache.SoftPFReq_hits::.switch_cpus.data        60807                       # number of SoftPFReq hits
system.cpu.dcache.SoftPFReq_hits::total         60807                       # number of SoftPFReq hits
system.cpu.dcache.SoftPFReq_misses::.switch_cpus.data        12717                       # number of SoftPFReq misses
system.cpu.dcache.SoftPFReq_misses::total        12717                       # number of SoftPFReq misses
system.cpu.dcache.SoftPFReq_accesses::.switch_cpus.data        73524                       # number of SoftPFReq accesses(hits+misses)
system.cpu.dcache.SoftPFReq_accesses::total        73524                       # number of SoftPFReq accesses(hits+misses)
system.cpu.dcache.SoftPFReq_miss_rate::.switch_cpus.data     0.172964                       # miss rate for SoftPFReq accesses
system.cpu.dcache.SoftPFReq_miss_rate::total     0.172964                       # miss rate for SoftPFReq accesses
system.cpu.dcache.SoftPFReq_mshr_misses::.switch_cpus.data         5440                       # number of SoftPFReq MSHR misses
system.cpu.dcache.SoftPFReq_mshr_misses::total         5440                       # number of SoftPFReq MSHR misses
system.cpu.dcache.SoftPFReq_mshr_miss_latency::.switch_cpus.data    479626500                       # number of SoftPFReq MSHR miss cycles
system.cpu.dcache.SoftPFReq_mshr_miss_latency::total    479626500                       # number of SoftPFReq MSHR miss cycles
system.cpu.dcache.SoftPFReq_mshr_miss_rate::.switch_cpus.data     0.073989                       # mshr miss rate for SoftPFReq accesses
system.cpu.dcache.SoftPFReq_mshr_miss_rate::total     0.073989                       # mshr miss rate for SoftPFReq accesses
system.cpu.dcache.SoftPFReq_avg_mshr_miss_latency::.switch_cpus.data 88166.636029                       # average SoftPFReq mshr miss latency
system.cpu.dcache.SoftPFReq_avg_mshr_miss_latency::total 88166.636029                       # average SoftPFReq mshr miss latency
system.cpu.dcache.tags.pwrStateResidencyTicks::UNDEFINED 560765839112500                       # Cumulative time (in ticks) in various power states
system.cpu.dcache.tags.tagsinuse             0.057971                       # Cycle average of tags in use
system.cpu.dcache.tags.total_refs            37533730                       # Total number of references to valid blocks.
system.cpu.dcache.tags.sampled_refs            448800                       # Sample count of references to valid blocks.
system.cpu.dcache.tags.avg_refs             83.631306                       # Average number of references to valid blocks.
system.cpu.dcache.tags.warmup_cycle      560734027452500                       # Cycle when the warmup percentage was hit.
system.cpu.dcache.tags.occ_blocks::.cpu.data     0.000002                       # Average occupied blocks per requestor
system.cpu.dcache.tags.occ_blocks::.switch_cpus.data     0.057969                       # Average occupied blocks per requestor
system.cpu.dcache.tags.occ_percent::.cpu.data     0.000000                       # Average percentage of cache occupancy
system.cpu.dcache.tags.occ_percent::.switch_cpus.data     0.000057                       # Average percentage of cache occupancy
system.cpu.dcache.tags.occ_percent::total     0.000057                       # Average percentage of cache occupancy
system.cpu.dcache.tags.occ_task_id_blocks::1024         1024                       # Occupied blocks per task id
system.cpu.dcache.tags.age_task_id_blocks_1024::0          128                       # Occupied blocks per task id
system.cpu.dcache.tags.age_task_id_blocks_1024::1          548                       # Occupied blocks per task id
system.cpu.dcache.tags.age_task_id_blocks_1024::2          347                       # Occupied blocks per task id
system.cpu.dcache.tags.age_task_id_blocks_1024::3            1                       # Occupied blocks per task id
system.cpu.dcache.tags.occ_task_id_percent::1024            1                       # Percentage of cache occupancy per task id
system.cpu.dcache.tags.tag_accesses          75956432                       # Number of tag accesses
system.cpu.dcache.tags.data_accesses         75956432                       # Number of data accesses

---------- End Simulation Statistics   ----------
