
---------- Begin Simulation Statistics ----------
final_tick                               805417529067500                       # Number of ticks from beginning of simulation (restored from checkpoints and never reset)
host_inst_rate                                  45860                       # Simulator instruction rate (inst/s)
host_mem_usage                                 829652                       # Number of bytes of host memory used
host_op_rate                                    93600                       # Simulator op (including micro ops) rate (op/s)
host_seconds                                   218.05                       # Real time elapsed on the host
host_tick_rate                               33296360                       # Simulator tick rate (ticks/s)
sim_freq                                 1000000000000                       # Frequency of simulated ticks
sim_insts                                    10000011                       # Number of instructions simulated
sim_ops                                      20409937                       # Number of ops (including micro ops) simulated
sim_seconds                                  0.007260                       # Number of seconds simulated
sim_ticks                                  7260397500                       # Number of ticks simulated
system.cpu.Branches                                 2                       # Number of branches fetched
system.cpu.committedInsts                           9                       # Number of instructions committed
system.cpu.committedOps                            18                       # Number of ops (including micro ops) committed
system.cpu.dtb.rdAccesses                           5                       # TLB accesses on read requests
system.cpu.dtb.rdMisses                             0                       # TLB misses on read requests
system.cpu.dtb.wrAccesses                           0                       # TLB accesses on write requests
system.cpu.dtb.wrMisses                             0                       # TLB misses on write requests
system.cpu.idle_fraction                            0                       # Percentage of idle cycles
system.cpu.itb.rdAccesses                           0                       # TLB accesses on read requests
system.cpu.itb.rdMisses                             0                       # TLB misses on read requests
system.cpu.itb.wrAccesses                          12                       # TLB accesses on write requests
system.cpu.itb.wrMisses                             0                       # TLB misses on write requests
system.cpu.not_idle_fraction                        1                       # Percentage of non-idle cycles
system.cpu.numCycles                               21                       # number of cpu cycles simulated
system.cpu.numWorkItemsCompleted                    0                       # number of work items this cpu completed
system.cpu.numWorkItemsStarted                      0                       # number of work items this cpu started
system.cpu.num_busy_cycles                         21                       # Number of busy cycles
system.cpu.num_cc_register_reads                   10                       # number of times the CC registers were read
system.cpu.num_cc_register_writes                   6                       # number of times the CC registers were written
system.cpu.num_conditional_control_insts            2                       # number of instructions that are conditional controls
system.cpu.num_fp_alu_accesses                      0                       # Number of float alu accesses
system.cpu.num_fp_insts                             0                       # number of float instructions
system.cpu.num_fp_register_reads                    0                       # number of times the floating registers were read
system.cpu.num_fp_register_writes                   0                       # number of times the floating registers were written
system.cpu.num_func_calls                           0                       # number of times a function call or return occured
system.cpu.num_idle_cycles                          0                       # Number of idle cycles
system.cpu.num_int_alu_accesses                    18                       # Number of integer alu accesses
system.cpu.num_int_insts                           18                       # number of integer instructions
system.cpu.num_int_register_reads                  45                       # number of times the integer registers were read
system.cpu.num_int_register_writes                 16                       # number of times the integer registers were written
system.cpu.num_load_insts                           5                       # Number of load instructions
system.cpu.num_mem_refs                             5                       # number of memory refs
system.cpu.num_store_insts                          0                       # Number of store instructions
system.cpu.num_vec_alu_accesses                     0                       # Number of vector alu accesses
system.cpu.num_vec_insts                            0                       # number of vector instructions
system.cpu.num_vec_register_reads                   0                       # number of times the vector registers were read
system.cpu.num_vec_register_writes                  0                       # number of times the vector registers were written
system.cpu.op_class::No_OpClass                     0      0.00%      0.00% # Class of executed instruction
system.cpu.op_class::IntAlu                        13     72.22%     72.22% # Class of executed instruction
system.cpu.op_class::IntMult                        0      0.00%     72.22% # Class of executed instruction
system.cpu.op_class::IntDiv                         0      0.00%     72.22% # Class of executed instruction
system.cpu.op_class::FloatAdd                       0      0.00%     72.22% # Class of executed instruction
system.cpu.op_class::FloatCmp                       0      0.00%     72.22% # Class of executed instruction
system.cpu.op_class::FloatCvt                       0      0.00%     72.22% # Class of executed instruction
system.cpu.op_class::FloatMult                      0      0.00%     72.22% # Class of executed instruction
system.cpu.op_class::FloatMultAcc                   0      0.00%     72.22% # Class of executed instruction
system.cpu.op_class::FloatDiv                       0      0.00%     72.22% # Class of executed instruction
system.cpu.op_class::FloatMisc                      0      0.00%     72.22% # Class of executed instruction
system.cpu.op_class::FloatSqrt                      0      0.00%     72.22% # Class of executed instruction
system.cpu.op_class::SimdAdd                        0      0.00%     72.22% # Class of executed instruction
system.cpu.op_class::SimdAddAcc                     0      0.00%     72.22% # Class of executed instruction
system.cpu.op_class::SimdAlu                        0      0.00%     72.22% # Class of executed instruction
system.cpu.op_class::SimdCmp                        0      0.00%     72.22% # Class of executed instruction
system.cpu.op_class::SimdCvt                        0      0.00%     72.22% # Class of executed instruction
system.cpu.op_class::SimdMisc                       0      0.00%     72.22% # Class of executed instruction
system.cpu.op_class::SimdMult                       0      0.00%     72.22% # Class of executed instruction
system.cpu.op_class::SimdMultAcc                    0      0.00%     72.22% # Class of executed instruction
system.cpu.op_class::SimdShift                      0      0.00%     72.22% # Class of executed instruction
system.cpu.op_class::SimdShiftAcc                   0      0.00%     72.22% # Class of executed instruction
system.cpu.op_class::SimdDiv                        0      0.00%     72.22% # Class of executed instruction
system.cpu.op_class::SimdSqrt                       0      0.00%     72.22% # Class of executed instruction
system.cpu.op_class::SimdFloatAdd                   0      0.00%     72.22% # Class of executed instruction
system.cpu.op_class::SimdFloatAlu                   0      0.00%     72.22% # Class of executed instruction
system.cpu.op_class::SimdFloatCmp                   0      0.00%     72.22% # Class of executed instruction
system.cpu.op_class::SimdFloatCvt                   0      0.00%     72.22% # Class of executed instruction
system.cpu.op_class::SimdFloatDiv                   0      0.00%     72.22% # Class of executed instruction
system.cpu.op_class::SimdFloatMisc                  0      0.00%     72.22% # Class of executed instruction
system.cpu.op_class::SimdFloatMult                  0      0.00%     72.22% # Class of executed instruction
system.cpu.op_class::SimdFloatMultAcc               0      0.00%     72.22% # Class of executed instruction
system.cpu.op_class::SimdFloatSqrt                  0      0.00%     72.22% # Class of executed instruction
system.cpu.op_class::SimdReduceAdd                  0      0.00%     72.22% # Class of executed instruction
system.cpu.op_class::SimdReduceAlu                  0      0.00%     72.22% # Class of executed instruction
system.cpu.op_class::SimdReduceCmp                  0      0.00%     72.22% # Class of executed instruction
system.cpu.op_class::SimdFloatReduceAdd             0      0.00%     72.22% # Class of executed instruction
system.cpu.op_class::SimdFloatReduceCmp             0      0.00%     72.22% # Class of executed instruction
system.cpu.op_class::SimdAes                        0      0.00%     72.22% # Class of executed instruction
system.cpu.op_class::SimdAesMix                     0      0.00%     72.22% # Class of executed instruction
system.cpu.op_class::SimdSha1Hash                   0      0.00%     72.22% # Class of executed instruction
system.cpu.op_class::SimdSha1Hash2                  0      0.00%     72.22% # Class of executed instruction
system.cpu.op_class::SimdSha256Hash                 0      0.00%     72.22% # Class of executed instruction
system.cpu.op_class::SimdSha256Hash2                0      0.00%     72.22% # Class of executed instruction
system.cpu.op_class::SimdShaSigma2                  0      0.00%     72.22% # Class of executed instruction
system.cpu.op_class::SimdShaSigma3                  0      0.00%     72.22% # Class of executed instruction
system.cpu.op_class::SimdPredAlu                    0      0.00%     72.22% # Class of executed instruction
system.cpu.op_class::MemRead                        5     27.78%    100.00% # Class of executed instruction
system.cpu.op_class::MemWrite                       0      0.00%    100.00% # Class of executed instruction
system.cpu.op_class::FloatMemRead                   0      0.00%    100.00% # Class of executed instruction
system.cpu.op_class::FloatMemWrite                  0      0.00%    100.00% # Class of executed instruction
system.cpu.op_class::IprAccess                      0      0.00%    100.00% # Class of executed instruction
system.cpu.op_class::InstPrefetch                   0      0.00%    100.00% # Class of executed instruction
system.cpu.op_class::total                         18                       # Class of executed instruction
system.cpu.workload.numSyscalls                     0                       # Number of system calls
system.membus.snoop_filter.hit_multi_requests            0                       # Number of requests hitting in the snoop filter with multiple (>1) holders of the requested data.
system.membus.snoop_filter.hit_multi_snoops            0                       # Number of snoops hitting in the snoop filter with multiple (>1) holders of the requested data.
system.membus.snoop_filter.hit_single_requests        94453                       # Number of requests hitting in the snoop filter with a single holder of the requested data.
system.membus.snoop_filter.hit_single_snoops            0                       # Number of snoops hitting in the snoop filter with a single holder of the requested data.
system.membus.snoop_filter.tot_requests        193047                       # Total number of requests made to the snoop filter.
system.membus.snoop_filter.tot_snoops               0                       # Total number of snoops made to the snoop filter.
system.switch_cpus.branchPred.BTBCorrect            0                       # Number of correct BTB predictions (this stat may not work properly.
system.switch_cpus.branchPred.BTBHitPct      0.000000                       # BTB Hit Percentage
system.switch_cpus.branchPred.BTBHits               0                       # Number of BTB hits
system.switch_cpus.branchPred.BTBLookups      1845323                       # Number of BTB lookups
system.switch_cpus.branchPred.RASInCorrect            1                       # Number of incorrect RAS predictions.
system.switch_cpus.branchPred.condIncorrect          211                       # Number of conditional branches incorrect
system.switch_cpus.branchPred.condPredicted      2603626                       # Number of conditional branches predicted
system.switch_cpus.branchPred.indirectHits       411024                       # Number of indirect target hits.
system.switch_cpus.branchPred.indirectLookups      1845323                       # Number of indirect predictor lookups.
system.switch_cpus.branchPred.indirectMisses      1434299                       # Number of indirect misses.
system.switch_cpus.branchPred.lookups         2603811                       # Number of BP lookups
system.switch_cpus.branchPred.usedRAS              86                       # Number of times the RAS was used to get a target.
system.switch_cpus.branchPredindirectMispredicted          148                       # Number of mispredicted indirect branches.
system.switch_cpus.cc_regfile_reads          13013671                       # number of cc regfile reads
system.switch_cpus.cc_regfile_writes          6028155                       # number of cc regfile writes
system.switch_cpus.commit.amos                      0                       # Number of atomic instructions committed
system.switch_cpus.commit.branchMispredicts          233                       # The number of times a branch was mispredicted
system.switch_cpus.commit.branches            2602501                       # Number of branches committed
system.switch_cpus.commit.bw_lim_events       2371394                       # number cycles where commit BW limit reached
system.switch_cpus.commit.commitSquashedInsts         7955                       # The number of squashed insts skipped by commit
system.switch_cpus.commit.committedInsts     10000002                       # Number of instructions committed
system.switch_cpus.commit.committedOps       20409919                       # Number of ops (including micro ops) committed
system.switch_cpus.commit.committed_per_cycle::samples     14515671                       # Number of insts commited each cycle
system.switch_cpus.commit.committed_per_cycle::mean     1.406061                       # Number of insts commited each cycle
system.switch_cpus.commit.committed_per_cycle::stdev     2.979679                       # Number of insts commited each cycle
system.switch_cpus.commit.committed_per_cycle::underflows            0      0.00%      0.00% # Number of insts commited each cycle
system.switch_cpus.commit.committed_per_cycle::0     11608781     79.97%     79.97% # Number of insts commited each cycle
system.switch_cpus.commit.committed_per_cycle::1       236746      1.63%     81.61% # Number of insts commited each cycle
system.switch_cpus.commit.committed_per_cycle::2        13432      0.09%     81.70% # Number of insts commited each cycle
system.switch_cpus.commit.committed_per_cycle::3       172272      1.19%     82.88% # Number of insts commited each cycle
system.switch_cpus.commit.committed_per_cycle::4        17093      0.12%     83.00% # Number of insts commited each cycle
system.switch_cpus.commit.committed_per_cycle::5        25808      0.18%     83.18% # Number of insts commited each cycle
system.switch_cpus.commit.committed_per_cycle::6        30086      0.21%     83.39% # Number of insts commited each cycle
system.switch_cpus.commit.committed_per_cycle::7        40059      0.28%     83.66% # Number of insts commited each cycle
system.switch_cpus.commit.committed_per_cycle::8      2371394     16.34%    100.00% # Number of insts commited each cycle
system.switch_cpus.commit.committed_per_cycle::overflows            0      0.00%    100.00% # Number of insts commited each cycle
system.switch_cpus.commit.committed_per_cycle::min_value            0                       # Number of insts commited each cycle
system.switch_cpus.commit.committed_per_cycle::max_value            8                       # Number of insts commited each cycle
system.switch_cpus.commit.committed_per_cycle::total     14515671                       # Number of insts commited each cycle
system.switch_cpus.commit.fp_insts                  0                       # Number of committed floating point instructions.
system.switch_cpus.commit.function_calls            7                       # Number of function calls committed.
system.switch_cpus.commit.int_insts          20409909                       # Number of committed integer instructions.
system.switch_cpus.commit.loads               4520333                       # Number of loads committed
system.switch_cpus.commit.membars                   0                       # Number of memory barriers committed
system.switch_cpus.commit.op_class_0::No_OpClass           10      0.00%      0.00% # Class of committed instruction
system.switch_cpus.commit.op_class_0::IntAlu     15752360     77.18%     77.18% # Class of committed instruction
system.switch_cpus.commit.op_class_0::IntMult            0      0.00%     77.18% # Class of committed instruction
system.switch_cpus.commit.op_class_0::IntDiv            0      0.00%     77.18% # Class of committed instruction
system.switch_cpus.commit.op_class_0::FloatAdd            0      0.00%     77.18% # Class of committed instruction
system.switch_cpus.commit.op_class_0::FloatCmp            0      0.00%     77.18% # Class of committed instruction
system.switch_cpus.commit.op_class_0::FloatCvt            0      0.00%     77.18% # Class of committed instruction
system.switch_cpus.commit.op_class_0::FloatMult            0      0.00%     77.18% # Class of committed instruction
system.switch_cpus.commit.op_class_0::FloatMultAcc            0      0.00%     77.18% # Class of committed instruction
system.switch_cpus.commit.op_class_0::FloatDiv            0      0.00%     77.18% # Class of committed instruction
system.switch_cpus.commit.op_class_0::FloatMisc            0      0.00%     77.18% # Class of committed instruction
system.switch_cpus.commit.op_class_0::FloatSqrt            0      0.00%     77.18% # Class of committed instruction
system.switch_cpus.commit.op_class_0::SimdAdd            0      0.00%     77.18% # Class of committed instruction
system.switch_cpus.commit.op_class_0::SimdAddAcc            0      0.00%     77.18% # Class of committed instruction
system.switch_cpus.commit.op_class_0::SimdAlu            0      0.00%     77.18% # Class of committed instruction
system.switch_cpus.commit.op_class_0::SimdCmp            0      0.00%     77.18% # Class of committed instruction
system.switch_cpus.commit.op_class_0::SimdCvt            0      0.00%     77.18% # Class of committed instruction
system.switch_cpus.commit.op_class_0::SimdMisc            0      0.00%     77.18% # Class of committed instruction
system.switch_cpus.commit.op_class_0::SimdMult            0      0.00%     77.18% # Class of committed instruction
system.switch_cpus.commit.op_class_0::SimdMultAcc            0      0.00%     77.18% # Class of committed instruction
system.switch_cpus.commit.op_class_0::SimdShift            0      0.00%     77.18% # Class of committed instruction
system.switch_cpus.commit.op_class_0::SimdShiftAcc            0      0.00%     77.18% # Class of committed instruction
system.switch_cpus.commit.op_class_0::SimdDiv            0      0.00%     77.18% # Class of committed instruction
system.switch_cpus.commit.op_class_0::SimdSqrt            0      0.00%     77.18% # Class of committed instruction
system.switch_cpus.commit.op_class_0::SimdFloatAdd            0      0.00%     77.18% # Class of committed instruction
system.switch_cpus.commit.op_class_0::SimdFloatAlu            0      0.00%     77.18% # Class of committed instruction
system.switch_cpus.commit.op_class_0::SimdFloatCmp            0      0.00%     77.18% # Class of committed instruction
system.switch_cpus.commit.op_class_0::SimdFloatCvt            0      0.00%     77.18% # Class of committed instruction
system.switch_cpus.commit.op_class_0::SimdFloatDiv            0      0.00%     77.18% # Class of committed instruction
system.switch_cpus.commit.op_class_0::SimdFloatMisc            0      0.00%     77.18% # Class of committed instruction
system.switch_cpus.commit.op_class_0::SimdFloatMult            0      0.00%     77.18% # Class of committed instruction
system.switch_cpus.commit.op_class_0::SimdFloatMultAcc            0      0.00%     77.18% # Class of committed instruction
system.switch_cpus.commit.op_class_0::SimdFloatSqrt            0      0.00%     77.18% # Class of committed instruction
system.switch_cpus.commit.op_class_0::SimdReduceAdd            0      0.00%     77.18% # Class of committed instruction
system.switch_cpus.commit.op_class_0::SimdReduceAlu            0      0.00%     77.18% # Class of committed instruction
system.switch_cpus.commit.op_class_0::SimdReduceCmp            0      0.00%     77.18% # Class of committed instruction
system.switch_cpus.commit.op_class_0::SimdFloatReduceAdd            0      0.00%     77.18% # Class of committed instruction
system.switch_cpus.commit.op_class_0::SimdFloatReduceCmp            0      0.00%     77.18% # Class of committed instruction
system.switch_cpus.commit.op_class_0::SimdAes            0      0.00%     77.18% # Class of committed instruction
system.switch_cpus.commit.op_class_0::SimdAesMix            0      0.00%     77.18% # Class of committed instruction
system.switch_cpus.commit.op_class_0::SimdSha1Hash            0      0.00%     77.18% # Class of committed instruction
system.switch_cpus.commit.op_class_0::SimdSha1Hash2            0      0.00%     77.18% # Class of committed instruction
system.switch_cpus.commit.op_class_0::SimdSha256Hash            0      0.00%     77.18% # Class of committed instruction
system.switch_cpus.commit.op_class_0::SimdSha256Hash2            0      0.00%     77.18% # Class of committed instruction
system.switch_cpus.commit.op_class_0::SimdShaSigma2            0      0.00%     77.18% # Class of committed instruction
system.switch_cpus.commit.op_class_0::SimdShaSigma3            0      0.00%     77.18% # Class of committed instruction
system.switch_cpus.commit.op_class_0::SimdPredAlu            0      0.00%     77.18% # Class of committed instruction
system.switch_cpus.commit.op_class_0::MemRead      4520333     22.15%     99.33% # Class of committed instruction
system.switch_cpus.commit.op_class_0::MemWrite       137216      0.67%    100.00% # Class of committed instruction
system.switch_cpus.commit.op_class_0::FloatMemRead            0      0.00%    100.00% # Class of committed instruction
system.switch_cpus.commit.op_class_0::FloatMemWrite            0      0.00%    100.00% # Class of committed instruction
system.switch_cpus.commit.op_class_0::IprAccess            0      0.00%    100.00% # Class of committed instruction
system.switch_cpus.commit.op_class_0::InstPrefetch            0      0.00%    100.00% # Class of committed instruction
system.switch_cpus.commit.op_class_0::total     20409919                       # Class of committed instruction
system.switch_cpus.commit.refs                4657549                       # Number of memory references committed
system.switch_cpus.commit.swp_count                 0                       # Number of s/w prefetches committed
system.switch_cpus.commit.vec_insts                 0                       # Number of committed Vector instructions.
system.switch_cpus.committedInsts            10000002                       # Number of Instructions Simulated
system.switch_cpus.committedOps              20409919                       # Number of Ops (including micro ops) Simulated
system.switch_cpus.cpi                       1.452077                       # CPI: Cycles Per Instruction
system.switch_cpus.cpi_total                 1.452077                       # CPI: Total CPI of All Threads
system.switch_cpus.decode.BlockedCycles      10917137                       # Number of cycles decode is blocked
system.switch_cpus.decode.DecodedInsts       20420719                       # Number of instructions handled by decode
system.switch_cpus.decode.IdleCycles           648046                       # Number of cycles decode is idle
system.switch_cpus.decode.RunCycles           2795749                       # Number of cycles decode is running
system.switch_cpus.decode.SquashCycles            265                       # Number of cycles decode is squashing
system.switch_cpus.decode.UnblockCycles        155731                       # Number of cycles decode is unblocking
system.switch_cpus.dtb.rdAccesses             4521853                       # TLB accesses on read requests
system.switch_cpus.dtb.rdMisses                  1702                       # TLB misses on read requests
system.switch_cpus.dtb.wrAccesses              137479                       # TLB accesses on write requests
system.switch_cpus.dtb.wrMisses                     3                       # TLB misses on write requests
system.switch_cpus.fetch.Branches             2603811                       # Number of branches that fetch encountered
system.switch_cpus.fetch.CacheLines            822881                       # Number of cache lines fetched
system.switch_cpus.fetch.Cycles              13692435                       # Number of cycles fetch has run and was not squashing or blocked
system.switch_cpus.fetch.IcacheSquashes            76                       # Number of outstanding Icache misses that were squashed
system.switch_cpus.fetch.Insts               10008321                       # Number of instructions fetch has processed
system.switch_cpus.fetch.MiscStallCycles           22                       # Number of cycles fetch has spent waiting on interrupts, or bad addresses, or out of MSHRs
system.switch_cpus.fetch.PendingTrapStallCycles          299                       # Number of stall cycles due to pending traps
system.switch_cpus.fetch.SquashCycles             530                       # Number of cycles fetch has spent squashing
system.switch_cpus.fetch.branchRate          0.179316                       # Number of branch fetches per cycle
system.switch_cpus.fetch.icacheStallCycles       823926                       # Number of cycles fetch is stalled on an Icache miss
system.switch_cpus.fetch.predictedBranches       411110                       # Number of branches that fetch has predicted taken
system.switch_cpus.fetch.rate                0.689242                       # Number of inst fetches per cycle
system.switch_cpus.fetch.rateDist::samples     14516947                       # Number of instructions fetched each cycle (Total)
system.switch_cpus.fetch.rateDist::mean      1.406853                       # Number of instructions fetched each cycle (Total)
system.switch_cpus.fetch.rateDist::stdev     2.907367                       # Number of instructions fetched each cycle (Total)
system.switch_cpus.fetch.rateDist::underflows            0      0.00%      0.00% # Number of instructions fetched each cycle (Total)
system.switch_cpus.fetch.rateDist::0         11330499     78.05%     78.05% # Number of instructions fetched each cycle (Total)
system.switch_cpus.fetch.rateDist::1           394699      2.72%     80.77% # Number of instructions fetched each cycle (Total)
system.switch_cpus.fetch.rateDist::2             1180      0.01%     80.78% # Number of instructions fetched each cycle (Total)
system.switch_cpus.fetch.rateDist::3           134536      0.93%     81.70% # Number of instructions fetched each cycle (Total)
system.switch_cpus.fetch.rateDist::4           332836      2.29%     84.00% # Number of instructions fetched each cycle (Total)
system.switch_cpus.fetch.rateDist::5            37932      0.26%     84.26% # Number of instructions fetched each cycle (Total)
system.switch_cpus.fetch.rateDist::6             4407      0.03%     84.29% # Number of instructions fetched each cycle (Total)
system.switch_cpus.fetch.rateDist::7           171761      1.18%     85.47% # Number of instructions fetched each cycle (Total)
system.switch_cpus.fetch.rateDist::8          2109097     14.53%    100.00% # Number of instructions fetched each cycle (Total)
system.switch_cpus.fetch.rateDist::overflows            0      0.00%    100.00% # Number of instructions fetched each cycle (Total)
system.switch_cpus.fetch.rateDist::min_value            0                       # Number of instructions fetched each cycle (Total)
system.switch_cpus.fetch.rateDist::max_value            8                       # Number of instructions fetched each cycle (Total)
system.switch_cpus.fetch.rateDist::total     14516947                       # Number of instructions fetched each cycle (Total)
system.switch_cpus.fp_regfile_writes               56                       # number of floating regfile writes
system.switch_cpus.idleCycles                    3827                       # Total number of cycles that the CPU has spent unscheduled due to idling
system.switch_cpus.iew.branchMispredicts          295                       # Number of branch mispredicts detected at execute
system.switch_cpus.iew.exec_branches          2602747                       # Number of branches executed
system.switch_cpus.iew.exec_nop                     0                       # number of nop insts executed
system.switch_cpus.iew.exec_rate             1.405924                       # Inst execution rate
system.switch_cpus.iew.exec_refs              4659408                       # number of memory reference insts executed
system.switch_cpus.iew.exec_stores             137479                       # Number of stores executed
system.switch_cpus.iew.exec_swp                     0                       # number of swp insts executed
system.switch_cpus.iew.iewBlockCycles            2425                       # Number of cycles IEW is blocking
system.switch_cpus.iew.iewDispLoadInsts       4522359                       # Number of dispatched load instructions
system.switch_cpus.iew.iewDispNonSpecInsts            0                       # Number of dispatched non-speculative instructions
system.switch_cpus.iew.iewDispSquashedInsts            4                       # Number of squashed instructions skipped by dispatch
system.switch_cpus.iew.iewDispStoreInsts       137725                       # Number of dispatched store instructions
system.switch_cpus.iew.iewDispatchedInsts     20417940                       # Number of instructions dispatched to IQ
system.switch_cpus.iew.iewExecLoadInsts       4521929                       # Number of load instructions executed
system.switch_cpus.iew.iewExecSquashedInsts          442                       # Number of squashed instructions skipped in execute
system.switch_cpus.iew.iewExecutedInsts      20415111                       # Number of executed instructions
system.switch_cpus.iew.iewIQFullEvents             34                       # Number of times the IQ has become full, causing a stall
system.switch_cpus.iew.iewIdleCycles                0                       # Number of cycles IEW is idle
system.switch_cpus.iew.iewLSQFullEvents        837312                       # Number of times the LSQ has become full, causing a stall
system.switch_cpus.iew.iewSquashCycles            265                       # Number of cycles IEW is squashing
system.switch_cpus.iew.iewUnblockCycles        837344                       # Number of cycles IEW is unblocking
system.switch_cpus.iew.lsq.thread0.blockedLoads            0                       # Number of blocked loads due to partial load-store forwarding
system.switch_cpus.iew.lsq.thread0.cacheBlocked           17                       # Number of times an access to memory failed due to the cache being blocked
system.switch_cpus.iew.lsq.thread0.forwLoads          191                       # Number of loads that had data forwarded from stores
system.switch_cpus.iew.lsq.thread0.ignoredResponses            8                       # Number of memory responses ignored because the instruction is squashed
system.switch_cpus.iew.lsq.thread0.invAddrLoads            0                       # Number of loads ignored due to an invalid address
system.switch_cpus.iew.lsq.thread0.invAddrSwpfs            0                       # Number of software prefetches ignored due to an invalid address
system.switch_cpus.iew.lsq.thread0.memOrderViolation           37                       # Number of memory ordering violations
system.switch_cpus.iew.lsq.thread0.rescheduledLoads            8                       # Number of loads that were rescheduled
system.switch_cpus.iew.lsq.thread0.squashedLoads         2004                       # Number of loads squashed
system.switch_cpus.iew.lsq.thread0.squashedStores          508                       # Number of stores squashed
system.switch_cpus.iew.memOrderViolationEvents           37                       # Number of memory order violations
system.switch_cpus.iew.predictedNotTakenIncorrect          274                       # Number of branches that were predicted not taken incorrectly
system.switch_cpus.iew.predictedTakenIncorrect           21                       # Number of branches that were predicted taken incorrectly
system.switch_cpus.iew.wb_consumers          24761869                       # num instructions consuming a value
system.switch_cpus.iew.wb_count              20414480                       # cumulative count of insts written-back
system.switch_cpus.iew.wb_fanout             0.697471                       # average fanout of values written-back
system.switch_cpus.iew.wb_producers          17270688                       # num instructions producing a value
system.switch_cpus.iew.wb_rate               1.405881                       # insts written-back per cycle
system.switch_cpus.iew.wb_sent               20414650                       # cumulative count of insts sent to commit
system.switch_cpus.int_regfile_reads         36033813                       # number of integer regfile reads
system.switch_cpus.int_regfile_writes        17674328                       # number of integer regfile writes
system.switch_cpus.ipc                       0.688669                       # IPC: Instructions Per Cycle
system.switch_cpus.ipc_total                 0.688669                       # IPC: Total IPC of All Threads
system.switch_cpus.iq.FU_type_0::No_OpClass          148      0.00%      0.00% # Type of FU issued
system.switch_cpus.iq.FU_type_0::IntAlu      15755836     77.18%     77.18% # Type of FU issued
system.switch_cpus.iq.FU_type_0::IntMult            0      0.00%     77.18% # Type of FU issued
system.switch_cpus.iq.FU_type_0::IntDiv             0      0.00%     77.18% # Type of FU issued
system.switch_cpus.iq.FU_type_0::FloatAdd            0      0.00%     77.18% # Type of FU issued
system.switch_cpus.iq.FU_type_0::FloatCmp            0      0.00%     77.18% # Type of FU issued
system.switch_cpus.iq.FU_type_0::FloatCvt            0      0.00%     77.18% # Type of FU issued
system.switch_cpus.iq.FU_type_0::FloatMult            0      0.00%     77.18% # Type of FU issued
system.switch_cpus.iq.FU_type_0::FloatMultAcc            0      0.00%     77.18% # Type of FU issued
system.switch_cpus.iq.FU_type_0::FloatDiv            0      0.00%     77.18% # Type of FU issued
system.switch_cpus.iq.FU_type_0::FloatMisc            0      0.00%     77.18% # Type of FU issued
system.switch_cpus.iq.FU_type_0::FloatSqrt            0      0.00%     77.18% # Type of FU issued
system.switch_cpus.iq.FU_type_0::SimdAdd            0      0.00%     77.18% # Type of FU issued
system.switch_cpus.iq.FU_type_0::SimdAddAcc            0      0.00%     77.18% # Type of FU issued
system.switch_cpus.iq.FU_type_0::SimdAlu            0      0.00%     77.18% # Type of FU issued
system.switch_cpus.iq.FU_type_0::SimdCmp            0      0.00%     77.18% # Type of FU issued
system.switch_cpus.iq.FU_type_0::SimdCvt            0      0.00%     77.18% # Type of FU issued
system.switch_cpus.iq.FU_type_0::SimdMisc            0      0.00%     77.18% # Type of FU issued
system.switch_cpus.iq.FU_type_0::SimdMult            0      0.00%     77.18% # Type of FU issued
system.switch_cpus.iq.FU_type_0::SimdMultAcc            0      0.00%     77.18% # Type of FU issued
system.switch_cpus.iq.FU_type_0::SimdShift            0      0.00%     77.18% # Type of FU issued
system.switch_cpus.iq.FU_type_0::SimdShiftAcc            0      0.00%     77.18% # Type of FU issued
system.switch_cpus.iq.FU_type_0::SimdDiv            0      0.00%     77.18% # Type of FU issued
system.switch_cpus.iq.FU_type_0::SimdSqrt            0      0.00%     77.18% # Type of FU issued
system.switch_cpus.iq.FU_type_0::SimdFloatAdd            0      0.00%     77.18% # Type of FU issued
system.switch_cpus.iq.FU_type_0::SimdFloatAlu            0      0.00%     77.18% # Type of FU issued
system.switch_cpus.iq.FU_type_0::SimdFloatCmp            0      0.00%     77.18% # Type of FU issued
system.switch_cpus.iq.FU_type_0::SimdFloatCvt            0      0.00%     77.18% # Type of FU issued
system.switch_cpus.iq.FU_type_0::SimdFloatDiv            0      0.00%     77.18% # Type of FU issued
system.switch_cpus.iq.FU_type_0::SimdFloatMisc            0      0.00%     77.18% # Type of FU issued
system.switch_cpus.iq.FU_type_0::SimdFloatMult            0      0.00%     77.18% # Type of FU issued
system.switch_cpus.iq.FU_type_0::SimdFloatMultAcc            0      0.00%     77.18% # Type of FU issued
system.switch_cpus.iq.FU_type_0::SimdFloatSqrt            0      0.00%     77.18% # Type of FU issued
system.switch_cpus.iq.FU_type_0::SimdReduceAdd            0      0.00%     77.18% # Type of FU issued
system.switch_cpus.iq.FU_type_0::SimdReduceAlu            0      0.00%     77.18% # Type of FU issued
system.switch_cpus.iq.FU_type_0::SimdReduceCmp            0      0.00%     77.18% # Type of FU issued
system.switch_cpus.iq.FU_type_0::SimdFloatReduceAdd            0      0.00%     77.18% # Type of FU issued
system.switch_cpus.iq.FU_type_0::SimdFloatReduceCmp            0      0.00%     77.18% # Type of FU issued
system.switch_cpus.iq.FU_type_0::SimdAes            0      0.00%     77.18% # Type of FU issued
system.switch_cpus.iq.FU_type_0::SimdAesMix            0      0.00%     77.18% # Type of FU issued
system.switch_cpus.iq.FU_type_0::SimdSha1Hash            0      0.00%     77.18% # Type of FU issued
system.switch_cpus.iq.FU_type_0::SimdSha1Hash2            0      0.00%     77.18% # Type of FU issued
system.switch_cpus.iq.FU_type_0::SimdSha256Hash            0      0.00%     77.18% # Type of FU issued
system.switch_cpus.iq.FU_type_0::SimdSha256Hash2            0      0.00%     77.18% # Type of FU issued
system.switch_cpus.iq.FU_type_0::SimdShaSigma2            0      0.00%     77.18% # Type of FU issued
system.switch_cpus.iq.FU_type_0::SimdShaSigma3            0      0.00%     77.18% # Type of FU issued
system.switch_cpus.iq.FU_type_0::SimdPredAlu            0      0.00%     77.18% # Type of FU issued
system.switch_cpus.iq.FU_type_0::MemRead      4522057     22.15%     99.33% # Type of FU issued
system.switch_cpus.iq.FU_type_0::MemWrite       137516      0.67%    100.00% # Type of FU issued
system.switch_cpus.iq.FU_type_0::FloatMemRead            0      0.00%    100.00% # Type of FU issued
system.switch_cpus.iq.FU_type_0::FloatMemWrite            0      0.00%    100.00% # Type of FU issued
system.switch_cpus.iq.FU_type_0::IprAccess            0      0.00%    100.00% # Type of FU issued
system.switch_cpus.iq.FU_type_0::InstPrefetch            0      0.00%    100.00% # Type of FU issued
system.switch_cpus.iq.FU_type_0::total       20415557                       # Type of FU issued
system.switch_cpus.iq.fp_alu_accesses               0                       # Number of floating point alu accesses
system.switch_cpus.iq.fp_inst_queue_reads            0                       # Number of floating instruction queue reads
system.switch_cpus.iq.fp_inst_queue_wakeup_accesses            0                       # Number of floating instruction queue wakeup accesses
system.switch_cpus.iq.fp_inst_queue_writes            0                       # Number of floating instruction queue writes
system.switch_cpus.iq.fu_busy_cnt              413843                       # FU busy when requested
system.switch_cpus.iq.fu_busy_rate           0.020271                       # FU busy rate (busy events/executed inst)
system.switch_cpus.iq.fu_full::No_OpClass            0      0.00%      0.00% # attempts to use FU when none available
system.switch_cpus.iq.fu_full::IntAlu          413788     99.99%     99.99% # attempts to use FU when none available
system.switch_cpus.iq.fu_full::IntMult              0      0.00%     99.99% # attempts to use FU when none available
system.switch_cpus.iq.fu_full::IntDiv               0      0.00%     99.99% # attempts to use FU when none available
system.switch_cpus.iq.fu_full::FloatAdd             0      0.00%     99.99% # attempts to use FU when none available
system.switch_cpus.iq.fu_full::FloatCmp             0      0.00%     99.99% # attempts to use FU when none available
system.switch_cpus.iq.fu_full::FloatCvt             0      0.00%     99.99% # attempts to use FU when none available
system.switch_cpus.iq.fu_full::FloatMult            0      0.00%     99.99% # attempts to use FU when none available
system.switch_cpus.iq.fu_full::FloatMultAcc            0      0.00%     99.99% # attempts to use FU when none available
system.switch_cpus.iq.fu_full::FloatDiv             0      0.00%     99.99% # attempts to use FU when none available
system.switch_cpus.iq.fu_full::FloatMisc            0      0.00%     99.99% # attempts to use FU when none available
system.switch_cpus.iq.fu_full::FloatSqrt            0      0.00%     99.99% # attempts to use FU when none available
system.switch_cpus.iq.fu_full::SimdAdd              0      0.00%     99.99% # attempts to use FU when none available
system.switch_cpus.iq.fu_full::SimdAddAcc            0      0.00%     99.99% # attempts to use FU when none available
system.switch_cpus.iq.fu_full::SimdAlu              0      0.00%     99.99% # attempts to use FU when none available
system.switch_cpus.iq.fu_full::SimdCmp              0      0.00%     99.99% # attempts to use FU when none available
system.switch_cpus.iq.fu_full::SimdCvt              0      0.00%     99.99% # attempts to use FU when none available
system.switch_cpus.iq.fu_full::SimdMisc             0      0.00%     99.99% # attempts to use FU when none available
system.switch_cpus.iq.fu_full::SimdMult             0      0.00%     99.99% # attempts to use FU when none available
system.switch_cpus.iq.fu_full::SimdMultAcc            0      0.00%     99.99% # attempts to use FU when none available
system.switch_cpus.iq.fu_full::SimdShift            0      0.00%     99.99% # attempts to use FU when none available
system.switch_cpus.iq.fu_full::SimdShiftAcc            0      0.00%     99.99% # attempts to use FU when none available
system.switch_cpus.iq.fu_full::SimdDiv              0      0.00%     99.99% # attempts to use FU when none available
system.switch_cpus.iq.fu_full::SimdSqrt             0      0.00%     99.99% # attempts to use FU when none available
system.switch_cpus.iq.fu_full::SimdFloatAdd            0      0.00%     99.99% # attempts to use FU when none available
system.switch_cpus.iq.fu_full::SimdFloatAlu            0      0.00%     99.99% # attempts to use FU when none available
system.switch_cpus.iq.fu_full::SimdFloatCmp            0      0.00%     99.99% # attempts to use FU when none available
system.switch_cpus.iq.fu_full::SimdFloatCvt            0      0.00%     99.99% # attempts to use FU when none available
system.switch_cpus.iq.fu_full::SimdFloatDiv            0      0.00%     99.99% # attempts to use FU when none available
system.switch_cpus.iq.fu_full::SimdFloatMisc            0      0.00%     99.99% # attempts to use FU when none available
system.switch_cpus.iq.fu_full::SimdFloatMult            0      0.00%     99.99% # attempts to use FU when none available
system.switch_cpus.iq.fu_full::SimdFloatMultAcc            0      0.00%     99.99% # attempts to use FU when none available
system.switch_cpus.iq.fu_full::SimdFloatSqrt            0      0.00%     99.99% # attempts to use FU when none available
system.switch_cpus.iq.fu_full::SimdReduceAdd            0      0.00%     99.99% # attempts to use FU when none available
system.switch_cpus.iq.fu_full::SimdReduceAlu            0      0.00%     99.99% # attempts to use FU when none available
system.switch_cpus.iq.fu_full::SimdReduceCmp            0      0.00%     99.99% # attempts to use FU when none available
system.switch_cpus.iq.fu_full::SimdFloatReduceAdd            0      0.00%     99.99% # attempts to use FU when none available
system.switch_cpus.iq.fu_full::SimdFloatReduceCmp            0      0.00%     99.99% # attempts to use FU when none available
system.switch_cpus.iq.fu_full::SimdAes              0      0.00%     99.99% # attempts to use FU when none available
system.switch_cpus.iq.fu_full::SimdAesMix            0      0.00%     99.99% # attempts to use FU when none available
system.switch_cpus.iq.fu_full::SimdSha1Hash            0      0.00%     99.99% # attempts to use FU when none available
system.switch_cpus.iq.fu_full::SimdSha1Hash2            0      0.00%     99.99% # attempts to use FU when none available
system.switch_cpus.iq.fu_full::SimdSha256Hash            0      0.00%     99.99% # attempts to use FU when none available
system.switch_cpus.iq.fu_full::SimdSha256Hash2            0      0.00%     99.99% # attempts to use FU when none available
system.switch_cpus.iq.fu_full::SimdShaSigma2            0      0.00%     99.99% # attempts to use FU when none available
system.switch_cpus.iq.fu_full::SimdShaSigma3            0      0.00%     99.99% # attempts to use FU when none available
system.switch_cpus.iq.fu_full::SimdPredAlu            0      0.00%     99.99% # attempts to use FU when none available
system.switch_cpus.iq.fu_full::MemRead             24      0.01%     99.99% # attempts to use FU when none available
system.switch_cpus.iq.fu_full::MemWrite            31      0.01%    100.00% # attempts to use FU when none available
system.switch_cpus.iq.fu_full::FloatMemRead            0      0.00%    100.00% # attempts to use FU when none available
system.switch_cpus.iq.fu_full::FloatMemWrite            0      0.00%    100.00% # attempts to use FU when none available
system.switch_cpus.iq.fu_full::IprAccess            0      0.00%    100.00% # attempts to use FU when none available
system.switch_cpus.iq.fu_full::InstPrefetch            0      0.00%    100.00% # attempts to use FU when none available
system.switch_cpus.iq.int_alu_accesses       20829252                       # Number of integer alu accesses
system.switch_cpus.iq.int_inst_queue_reads     55761954                       # Number of integer instruction queue reads
system.switch_cpus.iq.int_inst_queue_wakeup_accesses     20414480                       # Number of integer instruction queue wakeup accesses
system.switch_cpus.iq.int_inst_queue_writes     20425891                       # Number of integer instruction queue writes
system.switch_cpus.iq.iqInstsAdded           20417940                       # Number of instructions added to the IQ (excludes non-spec)
system.switch_cpus.iq.iqInstsIssued          20415557                       # Number of instructions issued
system.switch_cpus.iq.iqSquashedInstsExamined         7914                       # Number of squashed instructions iterated over during squash; mainly for profiling
system.switch_cpus.iq.iqSquashedInstsIssued           54                       # Number of squashed instructions issued
system.switch_cpus.iq.iqSquashedOperandsExamined        12346                       # Number of squashed operands that are examined and possibly removed from graph
system.switch_cpus.iq.issued_per_cycle::samples     14516947                       # Number of insts issued each cycle
system.switch_cpus.iq.issued_per_cycle::mean     1.406326                       # Number of insts issued each cycle
system.switch_cpus.iq.issued_per_cycle::stdev     2.412970                       # Number of insts issued each cycle
system.switch_cpus.iq.issued_per_cycle::underflows            0      0.00%      0.00% # Number of insts issued each cycle
system.switch_cpus.iq.issued_per_cycle::0      9907160     68.25%     68.25% # Number of insts issued each cycle
system.switch_cpus.iq.issued_per_cycle::1       753241      5.19%     73.43% # Number of insts issued each cycle
system.switch_cpus.iq.issued_per_cycle::2       391545      2.70%     76.13% # Number of insts issued each cycle
system.switch_cpus.iq.issued_per_cycle::3       434795      3.00%     79.13% # Number of insts issued each cycle
system.switch_cpus.iq.issued_per_cycle::4       577755      3.98%     83.11% # Number of insts issued each cycle
system.switch_cpus.iq.issued_per_cycle::5       754370      5.20%     88.30% # Number of insts issued each cycle
system.switch_cpus.iq.issued_per_cycle::6       805908      5.55%     93.85% # Number of insts issued each cycle
system.switch_cpus.iq.issued_per_cycle::7       480861      3.31%     97.17% # Number of insts issued each cycle
system.switch_cpus.iq.issued_per_cycle::8       411312      2.83%    100.00% # Number of insts issued each cycle
system.switch_cpus.iq.issued_per_cycle::overflows            0      0.00%    100.00% # Number of insts issued each cycle
system.switch_cpus.iq.issued_per_cycle::min_value            0                       # Number of insts issued each cycle
system.switch_cpus.iq.issued_per_cycle::max_value            8                       # Number of insts issued each cycle
system.switch_cpus.iq.issued_per_cycle::total     14516947                       # Number of insts issued each cycle
system.switch_cpus.iq.rate                   1.405955                       # Inst issue rate
system.switch_cpus.iq.vec_alu_accesses              0                       # Number of vector alu accesses
system.switch_cpus.iq.vec_inst_queue_reads            0                       # Number of vector instruction queue reads
system.switch_cpus.iq.vec_inst_queue_wakeup_accesses            0                       # Number of vector instruction queue wakeup accesses
system.switch_cpus.iq.vec_inst_queue_writes            0                       # Number of vector instruction queue writes
system.switch_cpus.itb.rdAccesses                   0                       # TLB accesses on read requests
system.switch_cpus.itb.rdMisses                     0                       # TLB misses on read requests
system.switch_cpus.itb.wrAccesses              822926                       # TLB accesses on write requests
system.switch_cpus.itb.wrMisses                    49                       # TLB misses on write requests
system.switch_cpus.memDep0.conflictingLoads          126                       # Number of conflicting loads.
system.switch_cpus.memDep0.conflictingStores           28                       # Number of conflicting stores.
system.switch_cpus.memDep0.insertedLoads      4522359                       # Number of loads inserted to the mem dependence unit.
system.switch_cpus.memDep0.insertedStores       137725                       # Number of stores inserted to the mem dependence unit.
system.switch_cpus.misc_regfile_reads         9865336                       # number of misc regfile reads
system.switch_cpus.misc_regfile_writes              1                       # number of misc regfile writes
system.switch_cpus.numCycles                 14520774                       # number of cpu cycles simulated
system.switch_cpus.numWorkItemsCompleted            0                       # number of work items this cpu completed
system.switch_cpus.numWorkItemsStarted              0                       # number of work items this cpu started
system.switch_cpus.rename.BlockCycles          842284                       # Number of cycles rename is blocking
system.switch_cpus.rename.CommittedMaps      23697321                       # Number of HB maps that are committed
system.switch_cpus.rename.IQFullEvents          44998                       # Number of times rename has blocked due to IQ full
system.switch_cpus.rename.IdleCycles           747054                       # Number of cycles rename is idle
system.switch_cpus.rename.LQFullEvents       10018434                       # Number of times rename has blocked due to LQ full
system.switch_cpus.rename.ROBFullEvents           592                       # Number of times rename has blocked due to ROB full
system.switch_cpus.rename.RenameLookups      58928201                       # Number of register rename lookups that rename has made
system.switch_cpus.rename.RenamedInsts       20419563                       # Number of instructions processed by rename
system.switch_cpus.rename.RenamedOperands     23707998                       # Number of destination operands rename has renamed
system.switch_cpus.rename.RunCycles           2852421                       # Number of cycles rename is running
system.switch_cpus.rename.SquashCycles            265                       # Number of cycles rename is squashing
system.switch_cpus.rename.UnblockCycles      10074904                       # Number of cycles rename is unblocking
system.switch_cpus.rename.UndoneMaps            10524                       # Number of HB maps that are undone due to squashing
system.switch_cpus.rename.int_rename_lookups     36043081                       # Number of integer rename lookups
system.switch_cpus.rename.serializeStallCycles            0                       # count of cycles rename stalled for serializing inst
system.switch_cpus.rename.serializingInsts            0                       # count of serializing insts renamed
system.switch_cpus.rename.skidInsts           1104685                       # count of insts added to the skid buffer
system.switch_cpus.rename.tempSerializingInsts            0                       # count of temporary serializing insts renamed
system.switch_cpus.rob.rob_reads             32562151                       # The number of ROB reads
system.switch_cpus.rob.rob_writes            40837147                       # The number of ROB writes
system.switch_cpus.timesIdled                      37                       # Number of times that the entire CPU went into an idle state and unscheduled itself
system.tol2bus.snoop_filter.hit_multi_requests            0                       # Number of requests hitting in the snoop filter with multiple (>1) holders of the requested data.
system.tol2bus.snoop_filter.hit_multi_snoops            0                       # Number of snoops hitting in the snoop filter with multiple (>1) holders of the requested data.
system.tol2bus.snoop_filter.hit_single_requests       101829                       # Number of requests hitting in the snoop filter with a single holder of the requested data.
system.tol2bus.snoop_filter.hit_single_snoops        51619                       # Number of snoops hitting in the snoop filter with a single holder of the requested data.
system.tol2bus.snoop_filter.tot_requests       204727                       # Total number of requests made to the snoop filter.
system.tol2bus.snoop_filter.tot_snoops          51619                       # Total number of snoops made to the snoop filter.
system.membus.pwrStateResidencyTicks::UNDEFINED 805417529067500                       # Cumulative time (in ticks) in various power states
system.membus.trans_dist::ReadResp              98589                       # Transaction distribution
system.membus.trans_dist::WritebackDirty           38                       # Transaction distribution
system.membus.trans_dist::CleanEvict            94415                       # Transaction distribution
system.membus.trans_dist::ReadExReq                 5                       # Transaction distribution
system.membus.trans_dist::ReadExResp                5                       # Transaction distribution
system.membus.trans_dist::ReadSharedReq         98589                       # Transaction distribution
system.membus.pkt_count_system.l2.mem_side::system.mem_ctrls.port       291641                       # Packet count per connected master and slave (bytes)
system.membus.pkt_count_system.l2.mem_side::total       291641                       # Packet count per connected master and slave (bytes)
system.membus.pkt_count::total                 291641                       # Packet count per connected master and slave (bytes)
system.membus.pkt_size_system.l2.mem_side::system.mem_ctrls.port      6312448                       # Cumulative packet size per connected master and slave (bytes)
system.membus.pkt_size_system.l2.mem_side::total      6312448                       # Cumulative packet size per connected master and slave (bytes)
system.membus.pkt_size::total                 6312448                       # Cumulative packet size per connected master and slave (bytes)
system.membus.snoops                                0                       # Total snoops (count)
system.membus.snoopTraffic                          0                       # Total snoop traffic (bytes)
system.membus.snoop_fanout::samples             98594                       # Request fanout histogram
system.membus.snoop_fanout::mean                    0                       # Request fanout histogram
system.membus.snoop_fanout::stdev                   0                       # Request fanout histogram
system.membus.snoop_fanout::underflows              0      0.00%      0.00% # Request fanout histogram
system.membus.snoop_fanout::0                   98594    100.00%    100.00% # Request fanout histogram
system.membus.snoop_fanout::1                       0      0.00%    100.00% # Request fanout histogram
system.membus.snoop_fanout::overflows               0      0.00%    100.00% # Request fanout histogram
system.membus.snoop_fanout::min_value               0                       # Request fanout histogram
system.membus.snoop_fanout::max_value               0                       # Request fanout histogram
system.membus.snoop_fanout::total               98594                       # Request fanout histogram
system.membus.reqLayer2.occupancy           217558500                       # Layer occupancy (ticks)
system.membus.reqLayer2.utilization               3.0                       # Layer utilization (%)
system.membus.respLayer1.occupancy          523473750                       # Layer occupancy (ticks)
system.membus.respLayer1.utilization              7.2                       # Layer utilization (%)
system.switch_cpus.pwrStateResidencyTicks::OFF   7260397500                       # Cumulative time (in ticks) in various power states
system.switch_cpus.dtb.walker.pwrStateResidencyTicks::UNDEFINED 805417529067500                       # Cumulative time (in ticks) in various power states
system.switch_cpus.itb.walker.pwrStateResidencyTicks::UNDEFINED 805417529067500                       # Cumulative time (in ticks) in various power states
system.tol2bus.pwrStateResidencyTicks::UNDEFINED 805417529067500                       # Cumulative time (in ticks) in various power states
system.tol2bus.trans_dist::ReadResp            102891                       # Transaction distribution
system.tol2bus.trans_dist::WritebackDirty           81                       # Transaction distribution
system.tol2bus.trans_dist::CleanEvict          196265                       # Transaction distribution
system.tol2bus.trans_dist::ReadExReq                6                       # Transaction distribution
system.tol2bus.trans_dist::ReadExResp               6                       # Transaction distribution
system.tol2bus.trans_dist::ReadCleanReq            44                       # Transaction distribution
system.tol2bus.trans_dist::ReadSharedReq       102848                       # Transaction distribution
system.tol2bus.pkt_count_system.cpu.icache.mem_side::system.l2.cpu_side           88                       # Packet count per connected master and slave (bytes)
system.tol2bus.pkt_count_system.cpu.dcache.mem_side::system.l2.cpu_side       307536                       # Packet count per connected master and slave (bytes)
system.tol2bus.pkt_count::total                307624                       # Packet count per connected master and slave (bytes)
system.tol2bus.pkt_size_system.cpu.icache.mem_side::system.l2.cpu_side         2816                       # Cumulative packet size per connected master and slave (bytes)
system.tol2bus.pkt_size_system.cpu.dcache.mem_side::system.l2.cpu_side      6585344                       # Cumulative packet size per connected master and slave (bytes)
system.tol2bus.pkt_size::total                6588160                       # Cumulative packet size per connected master and slave (bytes)
system.tol2bus.snoops                           94517                       # Total snoops (count)
system.tol2bus.snoopTraffic                      2432                       # Total snoop traffic (bytes)
system.tol2bus.snoop_fanout::samples           197415                       # Request fanout histogram
system.tol2bus.snoop_fanout::mean            0.261475                       # Request fanout histogram
system.tol2bus.snoop_fanout::stdev           0.439439                       # Request fanout histogram
system.tol2bus.snoop_fanout::underflows             0      0.00%      0.00% # Request fanout histogram
system.tol2bus.snoop_fanout::0                 145796     73.85%     73.85% # Request fanout histogram
system.tol2bus.snoop_fanout::1                  51619     26.15%    100.00% # Request fanout histogram
system.tol2bus.snoop_fanout::2                      0      0.00%    100.00% # Request fanout histogram
system.tol2bus.snoop_fanout::3                      0      0.00%    100.00% # Request fanout histogram
system.tol2bus.snoop_fanout::4                      0      0.00%    100.00% # Request fanout histogram
system.tol2bus.snoop_fanout::overflows              0      0.00%    100.00% # Request fanout histogram
system.tol2bus.snoop_fanout::min_value              0                       # Request fanout histogram
system.tol2bus.snoop_fanout::max_value              1                       # Request fanout histogram
system.tol2bus.snoop_fanout::total             197415                       # Request fanout histogram
system.tol2bus.reqLayer0.occupancy          102403500                       # Layer occupancy (ticks)
system.tol2bus.reqLayer0.utilization              1.4                       # Layer utilization (%)
system.tol2bus.respLayer1.occupancy         154273500                       # Layer occupancy (ticks)
system.tol2bus.respLayer1.utilization             2.1                       # Layer utilization (%)
system.tol2bus.respLayer0.occupancy             63000                       # Layer occupancy (ticks)
system.tol2bus.respLayer0.utilization             0.0                       # Layer utilization (%)
system.voltage_domain.voltage                       1                       # Voltage in Volts
system.clk_domain.clock                          1000                       # Clock period in ticks
system.l2.pwrStateResidencyTicks::UNDEFINED 805417529067500                       # Cumulative time (in ticks) in various power states
system.l2.demand_hits::.switch_cpus.data         4303                       # number of demand (read+write) hits
system.l2.demand_hits::total                     4303                       # number of demand (read+write) hits
system.l2.overall_hits::.switch_cpus.data         4303                       # number of overall hits
system.l2.overall_hits::total                    4303                       # number of overall hits
system.l2.demand_misses::.cpu.inst                  2                       # number of demand (read+write) misses
system.l2.demand_misses::.cpu.data                  4                       # number of demand (read+write) misses
system.l2.demand_misses::.switch_cpus.inst           42                       # number of demand (read+write) misses
system.l2.demand_misses::.switch_cpus.data        98547                       # number of demand (read+write) misses
system.l2.demand_misses::total                  98595                       # number of demand (read+write) misses
system.l2.overall_misses::.cpu.inst                 2                       # number of overall misses
system.l2.overall_misses::.cpu.data                 4                       # number of overall misses
system.l2.overall_misses::.switch_cpus.inst           42                       # number of overall misses
system.l2.overall_misses::.switch_cpus.data        98547                       # number of overall misses
system.l2.overall_misses::total                 98595                       # number of overall misses
system.l2.demand_miss_latency::.switch_cpus.inst      3203500                       # number of demand (read+write) miss cycles
system.l2.demand_miss_latency::.switch_cpus.data   7483782000                       # number of demand (read+write) miss cycles
system.l2.demand_miss_latency::total       7486985500                       # number of demand (read+write) miss cycles
system.l2.overall_miss_latency::.switch_cpus.inst      3203500                       # number of overall miss cycles
system.l2.overall_miss_latency::.switch_cpus.data   7483782000                       # number of overall miss cycles
system.l2.overall_miss_latency::total      7486985500                       # number of overall miss cycles
system.l2.demand_accesses::.cpu.inst                2                       # number of demand (read+write) accesses
system.l2.demand_accesses::.cpu.data                4                       # number of demand (read+write) accesses
system.l2.demand_accesses::.switch_cpus.inst           42                       # number of demand (read+write) accesses
system.l2.demand_accesses::.switch_cpus.data       102850                       # number of demand (read+write) accesses
system.l2.demand_accesses::total               102898                       # number of demand (read+write) accesses
system.l2.overall_accesses::.cpu.inst               2                       # number of overall (read+write) accesses
system.l2.overall_accesses::.cpu.data               4                       # number of overall (read+write) accesses
system.l2.overall_accesses::.switch_cpus.inst           42                       # number of overall (read+write) accesses
system.l2.overall_accesses::.switch_cpus.data       102850                       # number of overall (read+write) accesses
system.l2.overall_accesses::total              102898                       # number of overall (read+write) accesses
system.l2.demand_miss_rate::.cpu.inst               1                       # miss rate for demand accesses
system.l2.demand_miss_rate::.cpu.data               1                       # miss rate for demand accesses
system.l2.demand_miss_rate::.switch_cpus.inst            1                       # miss rate for demand accesses
system.l2.demand_miss_rate::.switch_cpus.data     0.958162                       # miss rate for demand accesses
system.l2.demand_miss_rate::total            0.958182                       # miss rate for demand accesses
system.l2.overall_miss_rate::.cpu.inst              1                       # miss rate for overall accesses
system.l2.overall_miss_rate::.cpu.data              1                       # miss rate for overall accesses
system.l2.overall_miss_rate::.switch_cpus.inst            1                       # miss rate for overall accesses
system.l2.overall_miss_rate::.switch_cpus.data     0.958162                       # miss rate for overall accesses
system.l2.overall_miss_rate::total           0.958182                       # miss rate for overall accesses
system.l2.demand_avg_miss_latency::.switch_cpus.inst 76273.809524                       # average overall miss latency
system.l2.demand_avg_miss_latency::.switch_cpus.data 75941.246309                       # average overall miss latency
system.l2.demand_avg_miss_latency::total 75936.766570                       # average overall miss latency
system.l2.overall_avg_miss_latency::.switch_cpus.inst 76273.809524                       # average overall miss latency
system.l2.overall_avg_miss_latency::.switch_cpus.data 75941.246309                       # average overall miss latency
system.l2.overall_avg_miss_latency::total 75936.766570                       # average overall miss latency
system.l2.blocked_cycles::no_mshrs                  0                       # number of cycles access was blocked
system.l2.blocked_cycles::no_targets                0                       # number of cycles access was blocked
system.l2.blocked::no_mshrs                         0                       # number of cycles access was blocked
system.l2.blocked::no_targets                       0                       # number of cycles access was blocked
system.l2.avg_blocked_cycles::no_mshrs            nan                       # average number of cycles each access was blocked
system.l2.avg_blocked_cycles::no_targets          nan                       # average number of cycles each access was blocked
system.l2.writebacks::.writebacks                  38                       # number of writebacks
system.l2.writebacks::total                        38                       # number of writebacks
system.l2.demand_mshr_misses::.switch_cpus.inst           42                       # number of demand (read+write) MSHR misses
system.l2.demand_mshr_misses::.switch_cpus.data        98547                       # number of demand (read+write) MSHR misses
system.l2.demand_mshr_misses::total             98589                       # number of demand (read+write) MSHR misses
system.l2.overall_mshr_misses::.switch_cpus.inst           42                       # number of overall MSHR misses
system.l2.overall_mshr_misses::.switch_cpus.data        98547                       # number of overall MSHR misses
system.l2.overall_mshr_misses::total            98589                       # number of overall MSHR misses
system.l2.demand_mshr_miss_latency::.switch_cpus.inst      2783500                       # number of demand (read+write) MSHR miss cycles
system.l2.demand_mshr_miss_latency::.switch_cpus.data   6498322000                       # number of demand (read+write) MSHR miss cycles
system.l2.demand_mshr_miss_latency::total   6501105500                       # number of demand (read+write) MSHR miss cycles
system.l2.overall_mshr_miss_latency::.switch_cpus.inst      2783500                       # number of overall MSHR miss cycles
system.l2.overall_mshr_miss_latency::.switch_cpus.data   6498322000                       # number of overall MSHR miss cycles
system.l2.overall_mshr_miss_latency::total   6501105500                       # number of overall MSHR miss cycles
system.l2.demand_mshr_miss_rate::.switch_cpus.inst            1                       # mshr miss rate for demand accesses
system.l2.demand_mshr_miss_rate::.switch_cpus.data     0.958162                       # mshr miss rate for demand accesses
system.l2.demand_mshr_miss_rate::total       0.958124                       # mshr miss rate for demand accesses
system.l2.overall_mshr_miss_rate::.switch_cpus.inst            1                       # mshr miss rate for overall accesses
system.l2.overall_mshr_miss_rate::.switch_cpus.data     0.958162                       # mshr miss rate for overall accesses
system.l2.overall_mshr_miss_rate::total      0.958124                       # mshr miss rate for overall accesses
system.l2.demand_avg_mshr_miss_latency::.switch_cpus.inst 66273.809524                       # average overall mshr miss latency
system.l2.demand_avg_mshr_miss_latency::.switch_cpus.data 65941.347783                       # average overall mshr miss latency
system.l2.demand_avg_mshr_miss_latency::total 65941.489416                       # average overall mshr miss latency
system.l2.overall_avg_mshr_miss_latency::.switch_cpus.inst 66273.809524                       # average overall mshr miss latency
system.l2.overall_avg_mshr_miss_latency::.switch_cpus.data 65941.347783                       # average overall mshr miss latency
system.l2.overall_avg_mshr_miss_latency::total 65941.489416                       # average overall mshr miss latency
system.l2.replacements                          94517                       # number of replacements
system.l2.WritebackDirty_hits::.writebacks           43                       # number of WritebackDirty hits
system.l2.WritebackDirty_hits::total               43                       # number of WritebackDirty hits
system.l2.WritebackDirty_accesses::.writebacks           43                       # number of WritebackDirty accesses(hits+misses)
system.l2.WritebackDirty_accesses::total           43                       # number of WritebackDirty accesses(hits+misses)
system.l2.CleanEvict_mshr_misses::.writebacks        51555                       # number of CleanEvict MSHR misses
system.l2.CleanEvict_mshr_misses::total         51555                       # number of CleanEvict MSHR misses
system.l2.CleanEvict_mshr_miss_rate::.writebacks          inf                       # mshr miss rate for CleanEvict accesses
system.l2.CleanEvict_mshr_miss_rate::total          inf                       # mshr miss rate for CleanEvict accesses
system.l2.ReadExReq_hits::.switch_cpus.data            1                       # number of ReadExReq hits
system.l2.ReadExReq_hits::total                     1                       # number of ReadExReq hits
system.l2.ReadExReq_misses::.switch_cpus.data            5                       # number of ReadExReq misses
system.l2.ReadExReq_misses::total                   5                       # number of ReadExReq misses
system.l2.ReadExReq_miss_latency::.switch_cpus.data       267000                       # number of ReadExReq miss cycles
system.l2.ReadExReq_miss_latency::total        267000                       # number of ReadExReq miss cycles
system.l2.ReadExReq_accesses::.switch_cpus.data            6                       # number of ReadExReq accesses(hits+misses)
system.l2.ReadExReq_accesses::total                 6                       # number of ReadExReq accesses(hits+misses)
system.l2.ReadExReq_miss_rate::.switch_cpus.data     0.833333                       # miss rate for ReadExReq accesses
system.l2.ReadExReq_miss_rate::total         0.833333                       # miss rate for ReadExReq accesses
system.l2.ReadExReq_avg_miss_latency::.switch_cpus.data        53400                       # average ReadExReq miss latency
system.l2.ReadExReq_avg_miss_latency::total        53400                       # average ReadExReq miss latency
system.l2.ReadExReq_mshr_misses::.switch_cpus.data            5                       # number of ReadExReq MSHR misses
system.l2.ReadExReq_mshr_misses::total              5                       # number of ReadExReq MSHR misses
system.l2.ReadExReq_mshr_miss_latency::.switch_cpus.data       217000                       # number of ReadExReq MSHR miss cycles
system.l2.ReadExReq_mshr_miss_latency::total       217000                       # number of ReadExReq MSHR miss cycles
system.l2.ReadExReq_mshr_miss_rate::.switch_cpus.data     0.833333                       # mshr miss rate for ReadExReq accesses
system.l2.ReadExReq_mshr_miss_rate::total     0.833333                       # mshr miss rate for ReadExReq accesses
system.l2.ReadExReq_avg_mshr_miss_latency::.switch_cpus.data        43400                       # average ReadExReq mshr miss latency
system.l2.ReadExReq_avg_mshr_miss_latency::total        43400                       # average ReadExReq mshr miss latency
system.l2.ReadCleanReq_misses::.cpu.inst            2                       # number of ReadCleanReq misses
system.l2.ReadCleanReq_misses::.switch_cpus.inst           42                       # number of ReadCleanReq misses
system.l2.ReadCleanReq_misses::total               44                       # number of ReadCleanReq misses
system.l2.ReadCleanReq_miss_latency::.switch_cpus.inst      3203500                       # number of ReadCleanReq miss cycles
system.l2.ReadCleanReq_miss_latency::total      3203500                       # number of ReadCleanReq miss cycles
system.l2.ReadCleanReq_accesses::.cpu.inst            2                       # number of ReadCleanReq accesses(hits+misses)
system.l2.ReadCleanReq_accesses::.switch_cpus.inst           42                       # number of ReadCleanReq accesses(hits+misses)
system.l2.ReadCleanReq_accesses::total             44                       # number of ReadCleanReq accesses(hits+misses)
system.l2.ReadCleanReq_miss_rate::.cpu.inst            1                       # miss rate for ReadCleanReq accesses
system.l2.ReadCleanReq_miss_rate::.switch_cpus.inst            1                       # miss rate for ReadCleanReq accesses
system.l2.ReadCleanReq_miss_rate::total             1                       # miss rate for ReadCleanReq accesses
system.l2.ReadCleanReq_avg_miss_latency::.switch_cpus.inst 76273.809524                       # average ReadCleanReq miss latency
system.l2.ReadCleanReq_avg_miss_latency::total 72806.818182                       # average ReadCleanReq miss latency
system.l2.ReadCleanReq_mshr_misses::.switch_cpus.inst           42                       # number of ReadCleanReq MSHR misses
system.l2.ReadCleanReq_mshr_misses::total           42                       # number of ReadCleanReq MSHR misses
system.l2.ReadCleanReq_mshr_miss_latency::.switch_cpus.inst      2783500                       # number of ReadCleanReq MSHR miss cycles
system.l2.ReadCleanReq_mshr_miss_latency::total      2783500                       # number of ReadCleanReq MSHR miss cycles
system.l2.ReadCleanReq_mshr_miss_rate::.switch_cpus.inst            1                       # mshr miss rate for ReadCleanReq accesses
system.l2.ReadCleanReq_mshr_miss_rate::total     0.954545                       # mshr miss rate for ReadCleanReq accesses
system.l2.ReadCleanReq_avg_mshr_miss_latency::.switch_cpus.inst 66273.809524                       # average ReadCleanReq mshr miss latency
system.l2.ReadCleanReq_avg_mshr_miss_latency::total 66273.809524                       # average ReadCleanReq mshr miss latency
system.l2.ReadSharedReq_hits::.switch_cpus.data         4302                       # number of ReadSharedReq hits
system.l2.ReadSharedReq_hits::total              4302                       # number of ReadSharedReq hits
system.l2.ReadSharedReq_misses::.cpu.data            4                       # number of ReadSharedReq misses
system.l2.ReadSharedReq_misses::.switch_cpus.data        98542                       # number of ReadSharedReq misses
[...]
system.cpu.icache.tags.data_accesses          6583332                       # Number of data accesses
system.cpu.dtb.walker.pwrStateResidencyTicks::UNDEFINED 805437432750000                       # Cumulative time (in ticks) in various power states
system.cpu.interrupts.clk_domain.clock           8000                       # Clock period in ticks
system.cpu.itb_walker_cache.pwrStateResidencyTicks::UNDEFINED 805437432750000                       # Cumulative time (in ticks) in various power states
system.cpu.itb_walker_cache.blocked_cycles::no_mshrs            0                       # number of cycles access was blocked
system.cpu.itb_walker_cache.blocked_cycles::no_targets            0                       # number of cycles access was blocked
system.cpu.itb_walker_cache.blocked::no_mshrs            0                       # number of cycles access was blocked
system.cpu.itb_walker_cache.blocked::no_targets            0                       # number of cycles access was blocked
system.cpu.itb_walker_cache.avg_blocked_cycles::no_mshrs          nan                       # average number of cycles each access was blocked
system.cpu.itb_walker_cache.avg_blocked_cycles::no_targets          nan                       # average number of cycles each access was blocked
system.cpu.itb_walker_cache.replacements            0                       # number of replacements
system.cpu.itb_walker_cache.tags.pwrStateResidencyTicks::UNDEFINED 805437432750000                       # Cumulative time (in ticks) in various power states
system.cpu.itb_walker_cache.tags.tagsinuse            0                       # Cycle average of tags in use
system.cpu.itb_walker_cache.tags.total_refs            0                       # Total number of references to valid blocks.
system.cpu.itb_walker_cache.tags.sampled_refs            0                       # Sample count of references to valid blocks.
system.cpu.itb_walker_cache.tags.avg_refs          nan                       # Average number of references to valid blocks.
system.cpu.itb_walker_cache.tags.warmup_cycle            0                       # Cycle when the warmup percentage was hit.
system.cpu.itb_walker_cache.tags.tag_accesses            0                       # Number of tag accesses
system.cpu.itb_walker_cache.tags.data_accesses            0                       # Number of data accesses
system.cpu.itb.walker.pwrStateResidencyTicks::UNDEFINED 805437432750000                       # Cumulative time (in ticks) in various power states
system.cpu.dtb_walker_cache.pwrStateResidencyTicks::UNDEFINED 805437432750000                       # Cumulative time (in ticks) in various power states
system.cpu.dtb_walker_cache.blocked_cycles::no_mshrs            0                       # number of cycles access was blocked
system.cpu.dtb_walker_cache.blocked_cycles::no_targets            0                       # number of cycles access was blocked
system.cpu.dtb_walker_cache.blocked::no_mshrs            0                       # number of cycles access was blocked
system.cpu.dtb_walker_cache.blocked::no_targets            0                       # number of cycles access was blocked
system.cpu.dtb_walker_cache.avg_blocked_cycles::no_mshrs          nan                       # average number of cycles each access was blocked
system.cpu.dtb_walker_cache.avg_blocked_cycles::no_targets          nan                       # average number of cycles each access was blocked
system.cpu.dtb_walker_cache.replacements            0                       # number of replacements
system.cpu.dtb_walker_cache.tags.pwrStateResidencyTicks::UNDEFINED 805437432750000                       # Cumulative time (in ticks) in various power states
system.cpu.dtb_walker_cache.tags.tagsinuse            0                       # Cycle average of tags in use
system.cpu.dtb_walker_cache.tags.total_refs            0                       # Total number of references to valid blocks.
system.cpu.dtb_walker_cache.tags.sampled_refs            0                       # Sample count of references to valid blocks.
system.cpu.dtb_walker_cache.tags.avg_refs          nan                       # Average number of references to valid blocks.
system.cpu.dtb_walker_cache.tags.warmup_cycle            0                       # Cycle when the warmup percentage was hit.
system.cpu.dtb_walker_cache.tags.tag_accesses            0                       # Number of tag accesses
system.cpu.dtb_walker_cache.tags.data_accesses            0                       # Number of data accesses
system.cpu.dcache.pwrStateResidencyTicks::UNDEFINED 805437432750000                       # Cumulative time (in ticks) in various power states
system.cpu.dcache.demand_hits::.cpu.data            1                       # number of demand (read+write) hits
system.cpu.dcache.demand_hits::.switch_cpus.data     15666506                       # number of demand (read+write) hits
system.cpu.dcache.demand_hits::total         15666507                       # number of demand (read+write) hits
system.cpu.dcache.overall_hits::.cpu.data            1                       # number of overall hits
system.cpu.dcache.overall_hits::.switch_cpus.data     15666506                       # number of overall hits
system.cpu.dcache.overall_hits::total        15666507                       # number of overall hits
system.cpu.dcache.demand_misses::.cpu.data            4                       # number of demand (read+write) misses
system.cpu.dcache.demand_misses::.switch_cpus.data      2968833                       # number of demand (read+write) misses
system.cpu.dcache.demand_misses::total        2968837                       # number of demand (read+write) misses
system.cpu.dcache.overall_misses::.cpu.data            4                       # number of overall misses
system.cpu.dcache.overall_misses::.switch_cpus.data      2968833                       # number of overall misses
system.cpu.dcache.overall_misses::total       2968837                       # number of overall misses
system.cpu.dcache.demand_miss_latency::.switch_cpus.data 173254675500                       # number of demand (read+write) miss cycles
system.cpu.dcache.demand_miss_latency::total 173254675500                       # number of demand (read+write) miss cycles
system.cpu.dcache.overall_miss_latency::.switch_cpus.data 173254675500                       # number of overall miss cycles
system.cpu.dcache.overall_miss_latency::total 173254675500                       # number of overall miss cycles
system.cpu.dcache.demand_accesses::.cpu.data            5                       # number of demand (read+write) accesses
system.cpu.dcache.demand_accesses::.switch_cpus.data     18635339                       # number of demand (read+write) accesses
system.cpu.dcache.demand_accesses::total     18635344                       # number of demand (read+write) accesses
system.cpu.dcache.overall_accesses::.cpu.data            5                       # number of overall (read+write) accesses
system.cpu.dcache.overall_accesses::.switch_cpus.data     18635339                       # number of overall (read+write) accesses
system.cpu.dcache.overall_accesses::total     18635344                       # number of overall (read+write) accesses
system.cpu.dcache.demand_miss_rate::.cpu.data     0.800000                       # miss rate for demand accesses
system.cpu.dcache.demand_miss_rate::.switch_cpus.data     0.159312                       # miss rate for demand accesses
system.cpu.dcache.demand_miss_rate::total     0.159312                       # miss rate for demand accesses
system.cpu.dcache.overall_miss_rate::.cpu.data     0.800000                       # miss rate for overall accesses
system.cpu.dcache.overall_miss_rate::.switch_cpus.data     0.159312                       # miss rate for overall accesses
system.cpu.dcache.overall_miss_rate::total     0.159312                       # miss rate for overall accesses
system.cpu.dcache.demand_avg_miss_latency::.switch_cpus.data 58357.838080                       # average overall miss latency
system.cpu.dcache.demand_avg_miss_latency::total 58357.759453                       # average overall miss latency
system.cpu.dcache.overall_avg_miss_latency::.switch_cpus.data 58357.838080                       # average overall miss latency
system.cpu.dcache.overall_avg_miss_latency::total 58357.759453                       # average overall miss latency
system.cpu.dcache.blocked_cycles::no_mshrs         2858                       # number of cycles access was blocked
system.cpu.dcache.blocked_cycles::no_targets            0                       # number of cycles access was blocked
system.cpu.dcache.blocked::no_mshrs                95                       # number of cycles access was blocked
system.cpu.dcache.blocked::no_targets               0                       # number of cycles access was blocked
system.cpu.dcache.avg_blocked_cycles::no_mshrs    30.084211                       # average number of cycles each access was blocked
system.cpu.dcache.avg_blocked_cycles::no_targets          nan                       # average number of cycles each access was blocked
system.cpu.dcache.writebacks::.writebacks          241                       # number of writebacks
system.cpu.dcache.writebacks::total               241                       # number of writebacks
system.cpu.dcache.demand_mshr_hits::.switch_cpus.data      2558297                       # number of demand (read+write) MSHR hits
system.cpu.dcache.demand_mshr_hits::total      2558297                       # number of demand (read+write) MSHR hits
system.cpu.dcache.overall_mshr_hits::.switch_cpus.data      2558297                       # number of overall MSHR hits
system.cpu.dcache.overall_mshr_hits::total      2558297                       # number of overall MSHR hits
system.cpu.dcache.demand_mshr_misses::.switch_cpus.data       410536                       # number of demand (read+write) MSHR misses
system.cpu.dcache.demand_mshr_misses::total       410536                       # number of demand (read+write) MSHR misses
system.cpu.dcache.overall_mshr_misses::.switch_cpus.data       410536                       # number of overall MSHR misses
system.cpu.dcache.overall_mshr_misses::total       410536                       # number of overall MSHR misses
system.cpu.dcache.demand_mshr_miss_latency::.switch_cpus.data  28248374500                       # number of demand (read+write) MSHR miss cycles
system.cpu.dcache.demand_mshr_miss_latency::total  28248374500                       # number of demand (read+write) MSHR miss cycles
system.cpu.dcache.overall_mshr_miss_latency::.switch_cpus.data  28248374500                       # number of overall MSHR miss cycles
system.cpu.dcache.overall_mshr_miss_latency::total  28248374500                       # number of overall MSHR miss cycles
system.cpu.dcache.demand_mshr_miss_rate::.switch_cpus.data     0.022030                       # mshr miss rate for demand accesses
system.cpu.dcache.demand_mshr_miss_rate::total     0.022030                       # mshr miss rate for demand accesses
system.cpu.dcache.overall_mshr_miss_rate::.switch_cpus.data     0.022030                       # mshr miss rate for overall accesses
system.cpu.dcache.overall_mshr_miss_rate::total     0.022030                       # mshr miss rate for overall accesses
system.cpu.dcache.demand_avg_mshr_miss_latency::.switch_cpus.data 68808.519837                       # average overall mshr miss latency
system.cpu.dcache.demand_avg_mshr_miss_latency::total 68808.519837                       # average overall mshr miss latency
system.cpu.dcache.overall_avg_mshr_miss_latency::.switch_cpus.data 68808.519837                       # average overall mshr miss latency
system.cpu.dcache.overall_avg_mshr_miss_latency::total 68808.519837                       # average overall mshr miss latency
system.cpu.dcache.replacements                 409515                       # number of replacements
system.cpu.dcache.ReadReq_hits::.cpu.data            1                       # number of ReadReq hits
system.cpu.dcache.ReadReq_hits::.switch_cpus.data     15117605                       # number of ReadReq hits
system.cpu.dcache.ReadReq_hits::total        15117606                       # number of ReadReq hits
system.cpu.dcache.ReadReq_misses::.cpu.data            4                       # number of ReadReq misses
system.cpu.dcache.ReadReq_misses::.switch_cpus.data      2968792                       # number of ReadReq misses
system.cpu.dcache.ReadReq_misses::total       2968796                       # number of ReadReq misses
system.cpu.dcache.ReadReq_miss_latency::.switch_cpus.data 173252882000                       # number of ReadReq miss cycles
system.cpu.dcache.ReadReq_miss_latency::total 173252882000                       # number of ReadReq miss cycles
system.cpu.dcache.ReadReq_accesses::.cpu.data            5                       # number of ReadReq accesses(hits+misses)
system.cpu.dcache.ReadReq_accesses::.switch_cpus.data     18086397                       # number of ReadReq accesses(hits+misses)
system.cpu.dcache.ReadReq_accesses::total     18086402                       # number of ReadReq accesses(hits+misses)
system.cpu.dcache.ReadReq_miss_rate::.cpu.data     0.800000                       # miss rate for ReadReq accesses
system.cpu.dcache.ReadReq_miss_rate::.switch_cpus.data     0.164145                       # miss rate for ReadReq accesses
system.cpu.dcache.ReadReq_miss_rate::total     0.164145                       # miss rate for ReadReq accesses
system.cpu.dcache.ReadReq_avg_miss_latency::.switch_cpus.data 58358.039903                       # average ReadReq miss latency
system.cpu.dcache.ReadReq_avg_miss_latency::total 58357.961275                       # average ReadReq miss latency
system.cpu.dcache.ReadReq_mshr_hits::.switch_cpus.data      2558290                       # number of ReadReq MSHR hits
system.cpu.dcache.ReadReq_mshr_hits::total      2558290                       # number of ReadReq MSHR hits
system.cpu.dcache.ReadReq_mshr_misses::.switch_cpus.data       410502                       # number of ReadReq MSHR misses
system.cpu.dcache.ReadReq_mshr_misses::total       410502                       # number of ReadReq MSHR misses
system.cpu.dcache.ReadReq_mshr_miss_latency::.switch_cpus.data  28246817000                       # number of ReadReq MSHR miss cycles
system.cpu.dcache.ReadReq_mshr_miss_latency::total  28246817000                       # number of ReadReq MSHR miss cycles
system.cpu.dcache.ReadReq_mshr_miss_rate::.switch_cpus.data     0.022697                       # mshr miss rate for ReadReq accesses
system.cpu.dcache.ReadReq_mshr_miss_rate::total     0.022697                       # mshr miss rate for ReadReq accesses
system.cpu.dcache.ReadReq_avg_mshr_miss_latency::.switch_cpus.data 68810.424797                       # average ReadReq mshr miss latency
system.cpu.dcache.ReadReq_avg_mshr_miss_latency::total 68810.424797                       # average ReadReq mshr miss latency
system.cpu.dcache.WriteReq_hits::.switch_cpus.data       548901                       # number of WriteReq hits
system.cpu.dcache.WriteReq_hits::total         548901                       # number of WriteReq hits
system.cpu.dcache.WriteReq_misses::.switch_cpus.data           41                       # number of WriteReq misses
system.cpu.dcache.WriteReq_misses::total           41                       # number of WriteReq misses
system.cpu.dcache.WriteReq_miss_latency::.switch_cpus.data      1793500                       # number of WriteReq miss cycles
system.cpu.dcache.WriteReq_miss_latency::total      1793500                       # number of WriteReq miss cycles
system.cpu.dcache.WriteReq_accesses::.switch_cpus.data       548942                       # number of WriteReq accesses(hits+misses)
system.cpu.dcache.WriteReq_accesses::total       548942                       # number of WriteReq accesses(hits+misses)
system.cpu.dcache.WriteReq_miss_rate::.switch_cpus.data     0.000075                       # miss rate for WriteReq accesses
system.cpu.dcache.WriteReq_miss_rate::total     0.000075                       # miss rate for WriteReq accesses
system.cpu.dcache.WriteReq_avg_miss_latency::.switch_cpus.data 43743.902439                       # average WriteReq miss latency
system.cpu.dcache.WriteReq_avg_miss_latency::total 43743.902439                       # average WriteReq miss latency
system.cpu.dcache.WriteReq_mshr_hits::.switch_cpus.data            7                       # number of WriteReq MSHR hits
system.cpu.dcache.WriteReq_mshr_hits::total            7                       # number of WriteReq MSHR hits
system.cpu.dcache.WriteReq_mshr_misses::.switch_cpus.data           34                       # number of WriteReq MSHR misses
system.cpu.dcache.WriteReq_mshr_misses::total           34                       # number of WriteReq MSHR misses
system.cpu.dcache.WriteReq_mshr_miss_latency::.switch_cpus.data      1557500                       # number of WriteReq MSHR miss cycles
system.cpu.dcache.WriteReq_mshr_miss_latency::total      1557500                       # number of WriteReq MSHR miss cycles
system.cpu.dcache.WriteReq_mshr_miss_rate::.switch_cpus.data     0.000062                       # mshr miss rate for WriteReq accesses
system.cpu.dcache.WriteReq_mshr_miss_rate::total     0.000062                       # mshr miss rate for WriteReq accesses
system.cpu.dcache.WriteReq_avg_mshr_miss_latency::.switch_cpus.data 45808.823529                       # average WriteReq mshr miss latency
system.cpu.dcache.WriteReq_avg_mshr_miss_latency::total 45808.823529                       # average WriteReq mshr miss latency
system.cpu.dcache.tags.pwrStateResidencyTicks::UNDEFINED 805437432750000                       # Cumulative time (in ticks) in various power states
system.cpu.dcache.tags.tagsinuse             0.034470                       # Cycle average of tags in use
system.cpu.dcache.tags.total_refs            16077046                       # Total number of references to valid blocks.
system.cpu.dcache.tags.sampled_refs            410539                       # Sample count of references to valid blocks.
system.cpu.dcache.tags.avg_refs             39.160825                       # Average number of references to valid blocks.
system.cpu.dcache.tags.warmup_cycle      805410268671000                       # Cycle when the warmup percentage was hit.
system.cpu.dcache.tags.occ_blocks::.cpu.data     0.000000                       # Average occupied blocks per requestor
system.cpu.dcache.tags.occ_blocks::.switch_cpus.data     0.034470                       # Average occupied blocks per requestor
system.cpu.dcache.tags.occ_percent::.cpu.data     0.000000                       # Average percentage of cache occupancy
system.cpu.dcache.tags.occ_percent::.switch_cpus.data     0.000034                       # Average percentage of cache occupancy
system.cpu.dcache.tags.occ_percent::total     0.000034                       # Average percentage of cache occupancy
system.cpu.dcache.tags.occ_task_id_blocks::1024         1024                       # Occupied blocks per task id
system.cpu.dcache.tags.age_task_id_blocks_1024::0          143                       # Occupied blocks per task id
system.cpu.dcache.tags.age_task_id_blocks_1024::1          880                       # Occupied blocks per task id
system.cpu.dcache.tags.age_task_id_blocks_1024::4            1                       # Occupied blocks per task id
system.cpu.dcache.tags.occ_task_id_percent::1024            1                       # Percentage of cache occupancy per task id
system.cpu.dcache.tags.tag_accesses          37681227                       # Number of tag accesses
system.cpu.dcache.tags.data_accesses         37681227                       # Number of data accesses

---------- End Simulation Statistics   ----------
