
---------- Begin Simulation Statistics ----------
final_tick                               92852972701000                       # Number of ticks from beginning of simulation (restored from checkpoints and never reset)
host_inst_rate                                  20093                       # Simulator instruction rate (inst/s)
host_mem_usage                                 827576                       # Number of bytes of host memory used
host_op_rate                                    32560                       # Simulator op (including micro ops) rate (op/s)
host_seconds                                   497.69                       # Real time elapsed on the host
host_tick_rate                              144422851                       # Simulator tick rate (ticks/s)
sim_freq                                 1000000000000                       # Frequency of simulated ticks
sim_insts                                    10000010                       # Number of instructions simulated
sim_ops                                      16204568                       # Number of ops (including micro ops) simulated
sim_seconds                                  0.071877                       # Number of seconds simulated
sim_ticks                                 71877274750                       # Number of ticks simulated
system.cpu.Branches                                 3                       # Number of branches fetched
system.cpu.committedInsts                          10                       # Number of instructions committed
system.cpu.committedOps                            18                       # Number of ops (including micro ops) committed
system.cpu.dtb.rdAccesses                           4                       # TLB accesses on read requests
system.cpu.dtb.rdMisses                             0                       # TLB misses on read requests
system.cpu.dtb.wrAccesses                           0                       # TLB accesses on write requests
system.cpu.dtb.wrMisses                             0                       # TLB misses on write requests
system.cpu.idle_fraction                            0                       # Percentage of idle cycles
system.cpu.itb.rdAccesses                           0                       # TLB accesses on read requests
system.cpu.itb.rdMisses                             0                       # TLB misses on read requests
system.cpu.itb.wrAccesses                          13                       # TLB accesses on write requests
system.cpu.itb.wrMisses                             0                       # TLB misses on write requests
system.cpu.not_idle_fraction                        1                       # Percentage of non-idle cycles
system.cpu.numCycles                               21                       # number of cpu cycles simulated
system.cpu.numWorkItemsCompleted                    0                       # number of work items this cpu completed
system.cpu.numWorkItemsStarted                      0                       # number of work items this cpu started
system.cpu.num_busy_cycles                         21                       # Number of busy cycles
system.cpu.num_cc_register_reads                   16                       # number of times the CC registers were read
system.cpu.num_cc_register_writes                   8                       # number of times the CC registers were written
system.cpu.num_conditional_control_insts            3                       # number of instructions that are conditional controls
system.cpu.num_fp_alu_accesses                      0                       # Number of float alu accesses
system.cpu.num_fp_insts                             0                       # number of float instructions
system.cpu.num_fp_register_reads                    0                       # number of times the floating registers were read
system.cpu.num_fp_register_writes                   0                       # number of times the floating registers were written
system.cpu.num_func_calls                           0                       # number of times a function call or return occured
system.cpu.num_idle_cycles                          0                       # Number of idle cycles
system.cpu.num_int_alu_accesses                    18                       # Number of integer alu accesses
system.cpu.num_int_insts                           18                       # number of integer instructions
system.cpu.num_int_register_reads                  33                       # number of times the integer registers were read
system.cpu.num_int_register_writes                 15                       # number of times the integer registers were written
system.cpu.num_load_insts                           4                       # Number of load instructions
system.cpu.num_mem_refs                             4                       # number of memory refs
system.cpu.num_store_insts                          0                       # Number of store instructions
system.cpu.num_vec_alu_accesses                     0                       # Number of vector alu accesses
system.cpu.num_vec_insts                            0                       # number of vector instructions
system.cpu.num_vec_register_reads                   0                       # number of times the vector registers were read
system.cpu.num_vec_register_writes                  0                       # number of times the vector registers were written
system.cpu.op_class::No_OpClass                     0      0.00%      0.00% # Class of executed instruction
system.cpu.op_class::IntAlu                        14     77.78%     77.78% # Class of executed instruction
system.cpu.op_class::IntMult                        0      0.00%     77.78% # Class of executed instruction
system.cpu.op_class::IntDiv                         0      0.00%     77.78% # Class of executed instruction
system.cpu.op_class::FloatAdd                       0      0.00%     77.78% # Class of executed instruction
system.cpu.op_class::FloatCmp                       0      0.00%     77.78% # Class of executed instruction
system.cpu.op_class::FloatCvt                       0      0.00%     77.78% # Class of executed instruction
system.cpu.op_class::FloatMult                      0      0.00%     77.78% # Class of executed instruction
system.cpu.op_class::FloatMultAcc                   0      0.00%     77.78% # Class of executed instruction
system.cpu.op_class::FloatDiv                       0      0.00%     77.78% # Class of executed instruction
system.cpu.op_class::FloatMisc                      0      0.00%     77.78% # Class of executed instruction
system.cpu.op_class::FloatSqrt                      0      0.00%     77.78% # Class of executed instruction
system.cpu.op_class::SimdAdd                        0      0.00%     77.78% # Class of executed instruction
system.cpu.op_class::SimdAddAcc                     0      0.00%     77.78% # Class of executed instruction
system.cpu.op_class::SimdAlu                        0      0.00%     77.78% # Class of executed instruction
system.cpu.op_class::SimdCmp                        0      0.00%     77.78% # Class of executed instruction
system.cpu.op_class::SimdCvt                        0      0.00%     77.78% # Class of executed instruction
system.cpu.op_class::SimdMisc                       0      0.00%     77.78% # Class of executed instruction
system.cpu.op_class::SimdMult                       0      0.00%     77.78% # Class of executed instruction
system.cpu.op_class::SimdMultAcc                    0      0.00%     77.78% # Class of executed instruction
system.cpu.op_class::SimdShift                      0      0.00%     77.78% # Class of executed instruction
system.cpu.op_class::SimdShiftAcc                   0      0.00%     77.78% # Class of executed instruction
system.cpu.op_class::SimdDiv                        0      0.00%     77.78% # Class of executed instruction
system.cpu.op_class::SimdSqrt                       0      0.00%     77.78% # Class of executed instruction
system.cpu.op_class::SimdFloatAdd                   0      0.00%     77.78% # Class of executed instruction
system.cpu.op_class::SimdFloatAlu                   0      0.00%     77.78% # Class of executed instruction
system.cpu.op_class::SimdFloatCmp                   0      0.00%     77.78% # Class of executed instruction
system.cpu.op_class::SimdFloatCvt                   0      0.00%     77.78% # Class of executed instruction
system.cpu.op_class::SimdFloatDiv                   0      0.00%     77.78% # Class of executed instruction
system.cpu.op_class::SimdFloatMisc                  0      0.00%     77.78% # Class of executed instruction
system.cpu.op_class::SimdFloatMult                  0      0.00%     77.78% # Class of executed instruction
system.cpu.op_class::SimdFloatMultAcc               0      0.00%     77.78% # Class of executed instruction
system.cpu.op_class::SimdFloatSqrt                  0      0.00%     77.78% # Class of executed instruction
system.cpu.op_class::SimdReduceAdd                  0      0.00%     77.78% # Class of executed instruction
system.cpu.op_class::SimdReduceAlu                  0      0.00%     77.78% # Class of executed instruction
system.cpu.op_class::SimdReduceCmp                  0      0.00%     77.78% # Class of executed instruction
system.cpu.op_class::SimdFloatReduceAdd             0      0.00%     77.78% # Class of executed instruction
system.cpu.op_class::SimdFloatReduceCmp             0      0.00%     77.78% # Class of executed instruction
system.cpu.op_class::SimdAes                        0      0.00%     77.78% # Class of executed instruction
system.cpu.op_class::SimdAesMix                     0      0.00%     77.78% # Class of executed instruction
system.cpu.op_class::SimdSha1Hash                   0      0.00%     77.78% # Class of executed instruction
system.cpu.op_class::SimdSha1Hash2                  0      0.00%     77.78% # Class of executed instruction
system.cpu.op_class::SimdSha256Hash                 0      0.00%     77.78% # Class of executed instruction
system.cpu.op_class::SimdSha256Hash2                0      0.00%     77.78% # Class of executed instruction
system.cpu.op_class::SimdShaSigma2                  0      0.00%     77.78% # Class of executed instruction
system.cpu.op_class::SimdShaSigma3                  0      0.00%     77.78% # Class of executed instruction
system.cpu.op_class::SimdPredAlu                    0      0.00%     77.78% # Class of executed instruction
system.cpu.op_class::MemRead                        4     22.22%    100.00% # Class of executed instruction
system.cpu.op_class::MemWrite                       0      0.00%    100.00% # Class of executed instruction
system.cpu.op_class::FloatMemRead                   0      0.00%    100.00% # Class of executed instruction
system.cpu.op_class::FloatMemWrite                  0      0.00%    100.00% # Class of executed instruction
system.cpu.op_class::IprAccess                      0      0.00%    100.00% # Class of executed instruction
system.cpu.op_class::InstPrefetch                   0      0.00%    100.00% # Class of executed instruction
system.cpu.op_class::total                         18                       # Class of executed instruction
system.cpu.workload.numSyscalls                     0                       # Number of system calls
system.membus.snoop_filter.hit_multi_requests            0                       # Number of requests hitting in the snoop filter with multiple (>1) holders of the requested data.
system.membus.snoop_filter.hit_multi_snoops            0                       # Number of snoops hitting in the snoop filter with multiple (>1) holders of the requested data.
system.membus.snoop_filter.hit_single_requests      1887594                       # Number of requests hitting in the snoop filter with a single holder of the requested data.
system.membus.snoop_filter.hit_single_snoops            0                       # Number of snoops hitting in the snoop filter with a single holder of the requested data.
system.membus.snoop_filter.tot_requests       3779306                       # Total number of requests made to the snoop filter.
system.membus.snoop_filter.tot_snoops               0                       # Total number of snoops made to the snoop filter.
system.switch_cpus.branchPred.BTBCorrect            0                       # Number of correct BTB predictions (this stat may not work properly.
system.switch_cpus.branchPred.BTBHitPct      0.000000                       # BTB Hit Percentage
system.switch_cpus.branchPred.BTBHits               0                       # Number of BTB hits
system.switch_cpus.branchPred.BTBLookups      2086056                       # Number of BTB lookups
system.switch_cpus.branchPred.RASInCorrect            0                       # Number of incorrect RAS predictions.
system.switch_cpus.branchPred.condIncorrect       186607                       # Number of conditional branches incorrect
system.switch_cpus.branchPred.condPredicted      4477862                       # Number of conditional branches predicted
system.switch_cpus.branchPred.indirectHits      1636798                       # Number of indirect target hits.
system.switch_cpus.branchPred.indirectLookups      2086056                       # Number of indirect predictor lookups.
system.switch_cpus.branchPred.indirectMisses       449258                       # Number of indirect misses.
system.switch_cpus.branchPred.lookups         4489946                       # Number of BP lookups
system.switch_cpus.branchPred.usedRAS             286                       # Number of times the RAS was used to get a target.
system.switch_cpus.branchPredindirectMispredicted        35722                       # Number of mispredicted indirect branches.
system.switch_cpus.cc_regfile_reads          12981857                       # number of cc regfile reads
system.switch_cpus.cc_regfile_writes          9477071                       # number of cc regfile writes
system.switch_cpus.commit.amos                      0                       # Number of atomic instructions committed
system.switch_cpus.commit.branchMispredicts       186611                       # The number of times a branch was mispredicted
system.switch_cpus.commit.branches            1904056                       # Number of branches committed
system.switch_cpus.commit.bw_lim_events        508760                       # number cycles where commit BW limit reached
system.switch_cpus.commit.commitSquashedInsts     16296882                       # The number of squashed insts skipped by commit
system.switch_cpus.commit.committedInsts     10000000                       # Number of instructions committed
system.switch_cpus.commit.committedOps       16204550                       # Number of ops (including micro ops) committed
system.switch_cpus.commit.committed_per_cycle::samples    141524271                       # Number of insts commited each cycle
system.switch_cpus.commit.committed_per_cycle::mean     0.114500                       # Number of insts commited each cycle
system.switch_cpus.commit.committed_per_cycle::stdev     0.680254                       # Number of insts commited each cycle
system.switch_cpus.commit.committed_per_cycle::underflows            0      0.00%      0.00% # Number of insts commited each cycle
system.switch_cpus.commit.committed_per_cycle::0    134988734     95.38%     95.38% # Number of insts commited each cycle
system.switch_cpus.commit.committed_per_cycle::1      2989493      2.11%     97.49% # Number of insts commited each cycle
system.switch_cpus.commit.committed_per_cycle::2      1317988      0.93%     98.43% # Number of insts commited each cycle
system.switch_cpus.commit.committed_per_cycle::3       885331      0.63%     99.05% # Number of insts commited each cycle
system.switch_cpus.commit.committed_per_cycle::4       552975      0.39%     99.44% # Number of insts commited each cycle
system.switch_cpus.commit.committed_per_cycle::5        87292      0.06%     99.50% # Number of insts commited each cycle
system.switch_cpus.commit.committed_per_cycle::6       151238      0.11%     99.61% # Number of insts commited each cycle
system.switch_cpus.commit.committed_per_cycle::7        42460      0.03%     99.64% # Number of insts commited each cycle
system.switch_cpus.commit.committed_per_cycle::8       508760      0.36%    100.00% # Number of insts commited each cycle
system.switch_cpus.commit.committed_per_cycle::overflows            0      0.00%    100.00% # Number of insts commited each cycle
system.switch_cpus.commit.committed_per_cycle::min_value            0                       # Number of insts commited each cycle
system.switch_cpus.commit.committed_per_cycle::max_value            8                       # Number of insts commited each cycle
system.switch_cpus.commit.committed_per_cycle::total    141524271                       # Number of insts commited each cycle
system.switch_cpus.commit.fp_insts                  0                       # Number of committed floating point instructions.
system.switch_cpus.commit.function_calls            0                       # Number of function calls committed.
system.switch_cpus.commit.int_insts          16204186                       # Number of committed integer instructions.
system.switch_cpus.commit.loads               3567032                       # Number of loads committed
system.switch_cpus.commit.membars                   0                       # Number of memory barriers committed
system.switch_cpus.commit.op_class_0::No_OpClass            0      0.00%      0.00% # Class of committed instruction
system.switch_cpus.commit.op_class_0::IntAlu     11575705     71.43%     71.43% # Class of committed instruction
system.switch_cpus.commit.op_class_0::IntMult            0      0.00%     71.43% # Class of committed instruction
system.switch_cpus.commit.op_class_0::IntDiv            0      0.00%     71.43% # Class of committed instruction
system.switch_cpus.commit.op_class_0::FloatAdd            0      0.00%     71.43% # Class of committed instruction
system.switch_cpus.commit.op_class_0::FloatCmp            0      0.00%     71.43% # Class of committed instruction
system.switch_cpus.commit.op_class_0::FloatCvt            0      0.00%     71.43% # Class of committed instruction
system.switch_cpus.commit.op_class_0::FloatMult            0      0.00%     71.43% # Class of committed instruction
system.switch_cpus.commit.op_class_0::FloatMultAcc            0      0.00%     71.43% # Class of committed instruction
system.switch_cpus.commit.op_class_0::FloatDiv            0      0.00%     71.43% # Class of committed instruction
system.switch_cpus.commit.op_class_0::FloatMisc            0      0.00%     71.43% # Class of committed instruction
system.switch_cpus.commit.op_class_0::FloatSqrt            0      0.00%     71.43% # Class of committed instruction
system.switch_cpus.commit.op_class_0::SimdAdd            0      0.00%     71.43% # Class of committed instruction
system.switch_cpus.commit.op_class_0::SimdAddAcc            0      0.00%     71.43% # Class of committed instruction
system.switch_cpus.commit.op_class_0::SimdAlu            0      0.00%     71.43% # Class of committed instruction
system.switch_cpus.commit.op_class_0::SimdCmp            0      0.00%     71.43% # Class of committed instruction
system.switch_cpus.commit.op_class_0::SimdCvt            0      0.00%     71.43% # Class of committed instruction
system.switch_cpus.commit.op_class_0::SimdMisc            0      0.00%     71.43% # Class of committed instruction
system.switch_cpus.commit.op_class_0::SimdMult            0      0.00%     71.43% # Class of committed instruction
system.switch_cpus.commit.op_class_0::SimdMultAcc            0      0.00%     71.43% # Class of committed instruction
system.switch_cpus.commit.op_class_0::SimdShift            0      0.00%     71.43% # Class of committed instruction
system.switch_cpus.commit.op_class_0::SimdShiftAcc            0      0.00%     71.43% # Class of committed instruction
system.switch_cpus.commit.op_class_0::SimdDiv            0      0.00%     71.43% # Class of committed instruction
system.switch_cpus.commit.op_class_0::SimdSqrt            0      0.00%     71.43% # Class of committed instruction
system.switch_cpus.commit.op_class_0::SimdFloatAdd            0      0.00%     71.43% # Class of committed instruction
system.switch_cpus.commit.op_class_0::SimdFloatAlu            0      0.00%     71.43% # Class of committed instruction
system.switch_cpus.commit.op_class_0::SimdFloatCmp            0      0.00%     71.43% # Class of committed instruction
system.switch_cpus.commit.op_class_0::SimdFloatCvt            0      0.00%     71.43% # Class of committed instruction
system.switch_cpus.commit.op_class_0::SimdFloatDiv            0      0.00%     71.43% # Class of committed instruction
system.switch_cpus.commit.op_class_0::SimdFloatMisc            0      0.00%     71.43% # Class of committed instruction
system.switch_cpus.commit.op_class_0::SimdFloatMult            0      0.00%     71.43% # Class of committed instruction
system.switch_cpus.commit.op_class_0::SimdFloatMultAcc            0      0.00%     71.43% # Class of committed instruction
system.switch_cpus.commit.op_class_0::SimdFloatSqrt            0      0.00%     71.43% # Class of committed instruction
system.switch_cpus.commit.op_class_0::SimdReduceAdd            0      0.00%     71.43% # Class of committed instruction
system.switch_cpus.commit.op_class_0::SimdReduceAlu            0      0.00%     71.43% # Class of committed instruction
system.switch_cpus.commit.op_class_0::SimdReduceCmp            0      0.00%     71.43% # Class of committed instruction
system.switch_cpus.commit.op_class_0::SimdFloatReduceAdd            0      0.00%     71.43% # Class of committed instruction
system.switch_cpus.commit.op_class_0::SimdFloatReduceCmp            0      0.00%     71.43% # Class of committed instruction
system.switch_cpus.commit.op_class_0::SimdAes            0      0.00%     71.43% # Class of committed instruction
system.switch_cpus.commit.op_class_0::SimdAesMix            0      0.00%     71.43% # Class of committed instruction
system.switch_cpus.commit.op_class_0::SimdSha1Hash            0      0.00%     71.43% # Class of committed instruction
system.switch_cpus.commit.op_class_0::SimdSha1Hash2            0      0.00%     71.43% # Class of committed instruction
system.switch_cpus.commit.op_class_0::SimdSha256Hash            0      0.00%     71.43% # Class of committed instruction
system.switch_cpus.commit.op_class_0::SimdSha256Hash2            0      0.00%     71.43% # Class of committed instruction
system.switch_cpus.commit.op_class_0::SimdShaSigma2            0      0.00%     71.43% # Class of committed instruction
system.switch_cpus.commit.op_class_0::SimdShaSigma3            0      0.00%     71.43% # Class of committed instruction
system.switch_cpus.commit.op_class_0::SimdPredAlu            0      0.00%     71.43% # Class of committed instruction
system.switch_cpus.commit.op_class_0::MemRead      3567032     22.01%     93.45% # Class of committed instruction
system.switch_cpus.commit.op_class_0::MemWrite      1061813      6.55%    100.00% # Class of committed instruction
system.switch_cpus.commit.op_class_0::FloatMemRead            0      0.00%    100.00% # Class of committed instruction
system.switch_cpus.commit.op_class_0::FloatMemWrite            0      0.00%    100.00% # Class of committed instruction
system.switch_cpus.commit.op_class_0::IprAccess            0      0.00%    100.00% # Class of committed instruction
system.switch_cpus.commit.op_class_0::InstPrefetch            0      0.00%    100.00% # Class of committed instruction
system.switch_cpus.commit.op_class_0::total     16204550                       # Class of committed instruction
system.switch_cpus.commit.refs                4628845                       # Number of memory references committed
system.switch_cpus.commit.swp_count                 0                       # Number of s/w prefetches committed
system.switch_cpus.commit.vec_insts                 0                       # Number of committed Vector instructions.
system.switch_cpus.committedInsts            10000000                       # Number of Instructions Simulated
system.switch_cpus.committedOps              16204550                       # Number of Ops (including micro ops) Simulated
system.switch_cpus.cpi                      14.375453                       # CPI: Cycles Per Instruction
system.switch_cpus.cpi_total                14.375453                       # CPI: Total CPI of All Threads
system.switch_cpus.decode.BlockedCycles     137269112                       # Number of cycles decode is blocked
system.switch_cpus.decode.DecodedInsts       34199897                       # Number of instructions handled by decode
system.switch_cpus.decode.IdleCycles          1708405                       # Number of cycles decode is idle
system.switch_cpus.decode.RunCycles           2803671                       # Number of cycles decode is running
system.switch_cpus.decode.SquashCycles         186760                       # Number of cycles decode is squashing
system.switch_cpus.decode.UnblockCycles       1785560                       # Number of cycles decode is unblocking
system.switch_cpus.dtb.rdAccesses             4752351                       # TLB accesses on read requests
system.switch_cpus.dtb.rdMisses                 44408                       # TLB misses on read requests
system.switch_cpus.dtb.wrAccesses             1624683                       # TLB accesses on write requests
system.switch_cpus.dtb.wrMisses                  1625                       # TLB misses on write requests
system.switch_cpus.fetch.Branches             4489946                       # Number of branches that fetch encountered
system.switch_cpus.fetch.CacheLines           3073933                       # Number of cache lines fetched
system.switch_cpus.fetch.Cycles             140367119                       # Number of cycles fetch has run and was not squashing or blocked
system.switch_cpus.fetch.IcacheSquashes         19736                       # Number of outstanding Icache misses that were squashed
system.switch_cpus.fetch.Insts               24906978                       # Number of instructions fetch has processed
system.switch_cpus.fetch.MiscStallCycles            4                       # Number of cycles fetch has spent waiting on interrupts, or bad addresses, or out of MSHRs
system.switch_cpus.fetch.PendingTrapStallCycles         1960                       # Number of stall cycles due to pending traps
system.switch_cpus.fetch.SquashCycles          373520                       # Number of cycles fetch has spent squashing
system.switch_cpus.fetch.branchRate          0.031233                       # Number of branch fetches per cycle
system.switch_cpus.fetch.icacheStallCycles      3197674                       # Number of cycles fetch is stalled on an Icache miss
system.switch_cpus.fetch.predictedBranches      1637084                       # Number of branches that fetch has predicted taken
system.switch_cpus.fetch.rate                0.173260                       # Number of inst fetches per cycle
system.switch_cpus.fetch.rateDist::samples    143753517                       # Number of instructions fetched each cycle (Total)
system.switch_cpus.fetch.rateDist::mean      0.276638                       # Number of instructions fetched each cycle (Total)
system.switch_cpus.fetch.rateDist::stdev     1.354712                       # Number of instructions fetched each cycle (Total)
system.switch_cpus.fetch.rateDist::underflows            0      0.00%      0.00% # Number of instructions fetched each cycle (Total)
system.switch_cpus.fetch.rateDist::0        137252730     95.48%     95.48% # Number of instructions fetched each cycle (Total)
system.switch_cpus.fetch.rateDist::1           134953      0.09%     95.57% # Number of instructions fetched each cycle (Total)
system.switch_cpus.fetch.rateDist::2           632359      0.44%     96.01% # Number of instructions fetched each cycle (Total)
system.switch_cpus.fetch.rateDist::3           337970      0.24%     96.25% # Number of instructions fetched each cycle (Total)
system.switch_cpus.fetch.rateDist::4           510644      0.36%     96.60% # Number of instructions fetched each cycle (Total)
system.switch_cpus.fetch.rateDist::5           410800      0.29%     96.89% # Number of instructions fetched each cycle (Total)
system.switch_cpus.fetch.rateDist::6          1180749      0.82%     97.71% # Number of instructions fetched each cycle (Total)
system.switch_cpus.fetch.rateDist::7           173415      0.12%     97.83% # Number of instructions fetched each cycle (Total)
system.switch_cpus.fetch.rateDist::8          3119897      2.17%    100.00% # Number of instructions fetched each cycle (Total)
system.switch_cpus.fetch.rateDist::overflows            0      0.00%    100.00% # Number of instructions fetched each cycle (Total)
system.switch_cpus.fetch.rateDist::min_value            0                       # Number of instructions fetched each cycle (Total)
system.switch_cpus.fetch.rateDist::max_value            8                       # Number of instructions fetched each cycle (Total)
system.switch_cpus.fetch.rateDist::total    143753517                       # Number of instructions fetched each cycle (Total)
system.switch_cpus.fp_regfile_writes               56                       # number of floating regfile writes
system.switch_cpus.idleCycles                    1011                       # Total number of cycles that the CPU has spent unscheduled due to idling
system.switch_cpus.iew.branchMispredicts       200126                       # Number of branch mispredicts detected at execute
system.switch_cpus.iew.exec_branches          2359882                       # Number of branches executed
system.switch_cpus.iew.exec_nop                     0                       # number of nop insts executed
system.switch_cpus.iew.exec_rate             0.173232                       # Inst execution rate
system.switch_cpus.iew.exec_refs              6751877                       # number of memory reference insts executed
system.switch_cpus.iew.exec_stores            1624683                       # Number of stores executed
system.switch_cpus.iew.exec_swp                     0                       # number of swp insts executed
system.switch_cpus.iew.iewBlockCycles       102917203                       # Number of cycles IEW is blocking
system.switch_cpus.iew.iewDispLoadInsts       6976744                       # Number of dispatched load instructions
system.switch_cpus.iew.iewDispNonSpecInsts            0                       # Number of dispatched non-speculative instructions
system.switch_cpus.iew.iewDispSquashedInsts         7044                       # Number of squashed instructions skipped by dispatch
system.switch_cpus.iew.iewDispStoreInsts      2473916                       # Number of dispatched store instructions
system.switch_cpus.iew.iewDispatchedInsts     32493364                       # Number of instructions dispatched to IQ
system.switch_cpus.iew.iewExecLoadInsts       5127194                       # Number of load instructions executed
system.switch_cpus.iew.iewExecSquashedInsts       188759                       # Number of squashed instructions skipped in execute
system.switch_cpus.iew.iewExecutedInsts      24902897                       # Number of executed instructions
system.switch_cpus.iew.iewIQFullEvents         482795                       # Number of times the IQ has become full, causing a stall
system.switch_cpus.iew.iewIdleCycles                0                       # Number of cycles IEW is idle
system.switch_cpus.iew.iewLSQFullEvents        876510                       # Number of times the LSQ has become full, causing a stall
system.switch_cpus.iew.iewSquashCycles         186760                       # Number of cycles IEW is squashing
system.switch_cpus.iew.iewUnblockCycles       2019430                       # Number of cycles IEW is unblocking
system.switch_cpus.iew.lsq.thread0.blockedLoads            0                       # Number of blocked loads due to partial load-store forwarding
system.switch_cpus.iew.lsq.thread0.cacheBlocked       179272                       # Number of times an access to memory failed due to the cache being blocked
system.switch_cpus.iew.lsq.thread0.forwLoads        33505                       # Number of loads that had data forwarded from stores
system.switch_cpus.iew.lsq.thread0.ignoredResponses           30                       # Number of memory responses ignored because the instruction is squashed
system.switch_cpus.iew.lsq.thread0.invAddrLoads            0                       # Number of loads ignored due to an invalid address
system.switch_cpus.iew.lsq.thread0.invAddrSwpfs            0                       # Number of software prefetches ignored due to an invalid address
system.switch_cpus.iew.lsq.thread0.memOrderViolation          209                       # Number of memory ordering violations
system.switch_cpus.iew.lsq.thread0.rescheduledLoads            0                       # Number of loads that were rescheduled
system.switch_cpus.iew.lsq.thread0.squashedLoads      3409688                       # Number of loads squashed
system.switch_cpus.iew.lsq.thread0.squashedStores      1412103                       # Number of stores squashed
system.switch_cpus.iew.memOrderViolationEvents          209                       # Number of memory order violations
system.switch_cpus.iew.predictedNotTakenIncorrect       105097                       # Number of branches that were predicted not taken incorrectly
system.switch_cpus.iew.predictedTakenIncorrect        95029                       # Number of branches that were predicted taken incorrectly
system.switch_cpus.iew.wb_consumers          28323104                       # num instructions consuming a value
system.switch_cpus.iew.wb_count              24208282                       # cumulative count of insts written-back
system.switch_cpus.iew.wb_fanout             0.630826                       # average fanout of values written-back
system.switch_cpus.iew.wb_producers          17866944                       # num instructions producing a value
system.switch_cpus.iew.wb_rate               0.168400                       # insts written-back per cycle
system.switch_cpus.iew.wb_sent               24218771                       # cumulative count of insts sent to commit
system.switch_cpus.int_regfile_reads         33514329                       # number of integer regfile reads
system.switch_cpus.int_regfile_writes        20213362                       # number of integer regfile writes
system.switch_cpus.ipc                       0.069563                       # IPC: Instructions Per Cycle
system.switch_cpus.ipc_total                 0.069563                       # IPC: Total IPC of All Threads
system.switch_cpus.iq.FU_type_0::No_OpClass        21383      0.09%      0.09% # Type of FU issued
system.switch_cpus.iq.FU_type_0::IntAlu      18233164     72.67%     72.75% # Type of FU issued
system.switch_cpus.iq.FU_type_0::IntMult         3084      0.01%     72.76% # Type of FU issued
system.switch_cpus.iq.FU_type_0::IntDiv             0      0.00%     72.76% # Type of FU issued
system.switch_cpus.iq.FU_type_0::FloatAdd            0      0.00%     72.76% # Type of FU issued
system.switch_cpus.iq.FU_type_0::FloatCmp            0      0.00%     72.76% # Type of FU issued
system.switch_cpus.iq.FU_type_0::FloatCvt            0      0.00%     72.76% # Type of FU issued
system.switch_cpus.iq.FU_type_0::FloatMult            0      0.00%     72.76% # Type of FU issued
system.switch_cpus.iq.FU_type_0::FloatMultAcc            0      0.00%     72.76% # Type of FU issued
system.switch_cpus.iq.FU_type_0::FloatDiv            0      0.00%     72.76% # Type of FU issued
system.switch_cpus.iq.FU_type_0::FloatMisc            0      0.00%     72.76% # Type of FU issued
system.switch_cpus.iq.FU_type_0::FloatSqrt            0      0.00%     72.76% # Type of FU issued
system.switch_cpus.iq.FU_type_0::SimdAdd            0      0.00%     72.76% # Type of FU issued
system.switch_cpus.iq.FU_type_0::SimdAddAcc            0      0.00%     72.76% # Type of FU issued
system.switch_cpus.iq.FU_type_0::SimdAlu            0      0.00%     72.76% # Type of FU issued
system.switch_cpus.iq.FU_type_0::SimdCmp            0      0.00%     72.76% # Type of FU issued
system.switch_cpus.iq.FU_type_0::SimdCvt            0      0.00%     72.76% # Type of FU issued
system.switch_cpus.iq.FU_type_0::SimdMisc            0      0.00%     72.76% # Type of FU issued
system.switch_cpus.iq.FU_type_0::SimdMult            0      0.00%     72.76% # Type of FU issued
system.switch_cpus.iq.FU_type_0::SimdMultAcc            0      0.00%     72.76% # Type of FU issued
system.switch_cpus.iq.FU_type_0::SimdShift            0      0.00%     72.76% # Type of FU issued
system.switch_cpus.iq.FU_type_0::SimdShiftAcc            0      0.00%     72.76% # Type of FU issued
system.switch_cpus.iq.FU_type_0::SimdDiv            0      0.00%     72.76% # Type of FU issued
system.switch_cpus.iq.FU_type_0::SimdSqrt            0      0.00%     72.76% # Type of FU issued
system.switch_cpus.iq.FU_type_0::SimdFloatAdd            0      0.00%     72.76% # Type of FU issued
system.switch_cpus.iq.FU_type_0::SimdFloatAlu            0      0.00%     72.76% # Type of FU issued
system.switch_cpus.iq.FU_type_0::SimdFloatCmp            0      0.00%     72.76% # Type of FU issued
system.switch_cpus.iq.FU_type_0::SimdFloatCvt            0      0.00%     72.76% # Type of FU issued
system.switch_cpus.iq.FU_type_0::SimdFloatDiv            0      0.00%     72.76% # Type of FU issued
system.switch_cpus.iq.FU_type_0::SimdFloatMisc            0      0.00%     72.76% # Type of FU issued
system.switch_cpus.iq.FU_type_0::SimdFloatMult            0      0.00%     72.76% # Type of FU issued
system.switch_cpus.iq.FU_type_0::SimdFloatMultAcc            0      0.00%     72.76% # Type of FU issued
system.switch_cpus.iq.FU_type_0::SimdFloatSqrt            0      0.00%     72.76% # Type of FU issued
system.switch_cpus.iq.FU_type_0::SimdReduceAdd            0      0.00%     72.76% # Type of FU issued
system.switch_cpus.iq.FU_type_0::SimdReduceAlu            0      0.00%     72.76% # Type of FU issued
system.switch_cpus.iq.FU_type_0::SimdReduceCmp            0      0.00%     72.76% # Type of FU issued
system.switch_cpus.iq.FU_type_0::SimdFloatReduceAdd            0      0.00%     72.76% # Type of FU issued
system.switch_cpus.iq.FU_type_0::SimdFloatReduceCmp            0      0.00%     72.76% # Type of FU issued
system.switch_cpus.iq.FU_type_0::SimdAes            0      0.00%     72.76% # Type of FU issued
system.switch_cpus.iq.FU_type_0::SimdAesMix            0      0.00%     72.76% # Type of FU issued
system.switch_cpus.iq.FU_type_0::SimdSha1Hash            0      0.00%     72.76% # Type of FU issued
system.switch_cpus.iq.FU_type_0::SimdSha1Hash2            0      0.00%     72.76% # Type of FU issued
system.switch_cpus.iq.FU_type_0::SimdSha256Hash            0      0.00%     72.76% # Type of FU issued
system.switch_cpus.iq.FU_type_0::SimdSha256Hash2            0      0.00%     72.76% # Type of FU issued
system.switch_cpus.iq.FU_type_0::SimdShaSigma2            0      0.00%     72.76% # Type of FU issued
system.switch_cpus.iq.FU_type_0::SimdShaSigma3            0      0.00%     72.76% # Type of FU issued
system.switch_cpus.iq.FU_type_0::SimdPredAlu            0      0.00%     72.76% # Type of FU issued
system.switch_cpus.iq.FU_type_0::MemRead      5149789     20.52%     93.29% # Type of FU issued
system.switch_cpus.iq.FU_type_0::MemWrite      1684237      6.71%    100.00% # Type of FU issued
system.switch_cpus.iq.FU_type_0::FloatMemRead            0      0.00%    100.00% # Type of FU issued
system.switch_cpus.iq.FU_type_0::FloatMemWrite            0      0.00%    100.00% # Type of FU issued
system.switch_cpus.iq.FU_type_0::IprAccess            0      0.00%    100.00% # Type of FU issued
system.switch_cpus.iq.FU_type_0::InstPrefetch            0      0.00%    100.00% # Type of FU issued
system.switch_cpus.iq.FU_type_0::total       25091657                       # Type of FU issued
system.switch_cpus.iq.fp_alu_accesses               0                       # Number of floating point alu accesses
system.switch_cpus.iq.fp_inst_queue_reads            0                       # Number of floating instruction queue reads
system.switch_cpus.iq.fp_inst_queue_wakeup_accesses            0                       # Number of floating instruction queue wakeup accesses
system.switch_cpus.iq.fp_inst_queue_writes            0                       # Number of floating instruction queue writes
system.switch_cpus.iq.fu_busy_cnt              264041                       # FU busy when requested
system.switch_cpus.iq.fu_busy_rate           0.010523                       # FU busy rate (busy events/executed inst)
system.switch_cpus.iq.fu_full::No_OpClass            0      0.00%      0.00% # attempts to use FU when none available
system.switch_cpus.iq.fu_full::IntAlu           65822     24.93%     24.93% # attempts to use FU when none available
system.switch_cpus.iq.fu_full::IntMult              0      0.00%     24.93% # attempts to use FU when none available
system.switch_cpus.iq.fu_full::IntDiv               0      0.00%     24.93% # attempts to use FU when none available
system.switch_cpus.iq.fu_full::FloatAdd             0      0.00%     24.93% # attempts to use FU when none available
system.switch_cpus.iq.fu_full::FloatCmp             0      0.00%     24.93% # attempts to use FU when none available
system.switch_cpus.iq.fu_full::FloatCvt             0      0.00%     24.93% # attempts to use FU when none available
system.switch_cpus.iq.fu_full::FloatMult            0      0.00%     24.93% # attempts to use FU when none available
system.switch_cpus.iq.fu_full::FloatMultAcc            0      0.00%     24.93% # attempts to use FU when none available
system.switch_cpus.iq.fu_full::FloatDiv             0      0.00%     24.93% # attempts to use FU when none available
system.switch_cpus.iq.fu_full::FloatMisc            0      0.00%     24.93% # attempts to use FU when none available
system.switch_cpus.iq.fu_full::FloatSqrt            0      0.00%     24.93% # attempts to use FU when none available
system.switch_cpus.iq.fu_full::SimdAdd              0      0.00%     24.93% # attempts to use FU when none available
system.switch_cpus.iq.fu_full::SimdAddAcc            0      0.00%     24.93% # attempts to use FU when none available
system.switch_cpus.iq.fu_full::SimdAlu              0      0.00%     24.93% # attempts to use FU when none available
system.switch_cpus.iq.fu_full::SimdCmp              0      0.00%     24.93% # attempts to use FU when none available
system.switch_cpus.iq.fu_full::SimdCvt              0      0.00%     24.93% # attempts to use FU when none available
system.switch_cpus.iq.fu_full::SimdMisc             0      0.00%     24.93% # attempts to use FU when none available
system.switch_cpus.iq.fu_full::SimdMult             0      0.00%     24.93% # attempts to use FU when none available
system.switch_cpus.iq.fu_full::SimdMultAcc            0      0.00%     24.93% # attempts to use FU when none available
system.switch_cpus.iq.fu_full::SimdShift            0      0.00%     24.93% # attempts to use FU when none available
system.switch_cpus.iq.fu_full::SimdShiftAcc            0      0.00%     24.93% # attempts to use FU when none available
system.switch_cpus.iq.fu_full::SimdDiv              0      0.00%     24.93% # attempts to use FU when none available
system.switch_cpus.iq.fu_full::SimdSqrt             0      0.00%     24.93% # attempts to use FU when none available
system.switch_cpus.iq.fu_full::SimdFloatAdd            0      0.00%     24.93% # attempts to use FU when none available
system.switch_cpus.iq.fu_full::SimdFloatAlu            0      0.00%     24.93% # attempts to use FU when none available
system.switch_cpus.iq.fu_full::SimdFloatCmp            0      0.00%     24.93% # attempts to use FU when none available
system.switch_cpus.iq.fu_full::SimdFloatCvt            0      0.00%     24.93% # attempts to use FU when none available
system.switch_cpus.iq.fu_full::SimdFloatDiv            0      0.00%     24.93% # attempts to use FU when none available
system.switch_cpus.iq.fu_full::SimdFloatMisc            0      0.00%     24.93% # attempts to use FU when none available
system.switch_cpus.iq.fu_full::SimdFloatMult            0      0.00%     24.93% # attempts to use FU when none available
system.switch_cpus.iq.fu_full::SimdFloatMultAcc            0      0.00%     24.93% # attempts to use FU when none available
system.switch_cpus.iq.fu_full::SimdFloatSqrt            0      0.00%     24.93% # attempts to use FU when none available
system.switch_cpus.iq.fu_full::SimdReduceAdd            0      0.00%     24.93% # attempts to use FU when none available
system.switch_cpus.iq.fu_full::SimdReduceAlu            0      0.00%     24.93% # attempts to use FU when none available
system.switch_cpus.iq.fu_full::SimdReduceCmp            0      0.00%     24.93% # attempts to use FU when none available
system.switch_cpus.iq.fu_full::SimdFloatReduceAdd            0      0.00%     24.93% # attempts to use FU when none available
system.switch_cpus.iq.fu_full::SimdFloatReduceCmp            0      0.00%     24.93% # attempts to use FU when none available
system.switch_cpus.iq.fu_full::SimdAes              0      0.00%     24.93% # attempts to use FU when none available
system.switch_cpus.iq.fu_full::SimdAesMix            0      0.00%     24.93% # attempts to use FU when none available
system.switch_cpus.iq.fu_full::SimdSha1Hash            0      0.00%     24.93% # attempts to use FU when none available
system.switch_cpus.iq.fu_full::SimdSha1Hash2            0      0.00%     24.93% # attempts to use FU when none available
system.switch_cpus.iq.fu_full::SimdSha256Hash            0      0.00%     24.93% # attempts to use FU when none available
system.switch_cpus.iq.fu_full::SimdSha256Hash2            0      0.00%     24.93% # attempts to use FU when none available
system.switch_cpus.iq.fu_full::SimdShaSigma2            0      0.00%     24.93% # attempts to use FU when none available
system.switch_cpus.iq.fu_full::SimdShaSigma3            0      0.00%     24.93% # attempts to use FU when none available
system.switch_cpus.iq.fu_full::SimdPredAlu            0      0.00%     24.93% # attempts to use FU when none available
system.switch_cpus.iq.fu_full::MemRead          66278     25.10%     50.03% # attempts to use FU when none available
system.switch_cpus.iq.fu_full::MemWrite        131941     49.97%    100.00% # attempts to use FU when none available
system.switch_cpus.iq.fu_full::FloatMemRead            0      0.00%    100.00% # attempts to use FU when none available
system.switch_cpus.iq.fu_full::FloatMemWrite            0      0.00%    100.00% # attempts to use FU when none available
system.switch_cpus.iq.fu_full::IprAccess            0      0.00%    100.00% # attempts to use FU when none available
system.switch_cpus.iq.fu_full::InstPrefetch            0      0.00%    100.00% # attempts to use FU when none available
system.switch_cpus.iq.int_alu_accesses       25334315                       # Number of integer alu accesses
system.switch_cpus.iq.int_inst_queue_reads    194218740                       # Number of integer instruction queue reads
system.switch_cpus.iq.int_inst_queue_wakeup_accesses     24208282                       # Number of integer instruction queue wakeup accesses
system.switch_cpus.iq.int_inst_queue_writes     48782294                       # Number of integer instruction queue writes
system.switch_cpus.iq.iqInstsAdded           32493364                       # Number of instructions added to the IQ (excludes non-spec)
system.switch_cpus.iq.iqInstsIssued          25091657                       # Number of instructions issued
system.switch_cpus.iq.iqSquashedInstsExamined     16288729                       # Number of squashed instructions iterated over during squash; mainly for profiling
system.switch_cpus.iq.iqSquashedInstsIssued        17869                       # Number of squashed instructions issued
system.switch_cpus.iq.iqSquashedOperandsExamined     29169903                       # Number of squashed operands that are examined and possibly removed from graph
system.switch_cpus.iq.issued_per_cycle::samples    143753517                       # Number of insts issued each cycle
system.switch_cpus.iq.issued_per_cycle::mean     0.174546                       # Number of insts issued each cycle
system.switch_cpus.iq.issued_per_cycle::stdev     0.724983                       # Number of insts issued each cycle
system.switch_cpus.iq.issued_per_cycle::underflows            0      0.00%      0.00% # Number of insts issued each cycle
system.switch_cpus.iq.issued_per_cycle::0    131843004     91.71%     91.71% # Number of insts issued each cycle
system.switch_cpus.iq.issued_per_cycle::1      5876929      4.09%     95.80% # Number of insts issued each cycle
system.switch_cpus.iq.issued_per_cycle::2      2681479      1.87%     97.67% # Number of insts issued each cycle
system.switch_cpus.iq.issued_per_cycle::3      1497193      1.04%     98.71% # Number of insts issued each cycle
system.switch_cpus.iq.issued_per_cycle::4       836770      0.58%     99.29% # Number of insts issued each cycle
system.switch_cpus.iq.issued_per_cycle::5       441379      0.31%     99.60% # Number of insts issued each cycle
system.switch_cpus.iq.issued_per_cycle::6       320823      0.22%     99.82% # Number of insts issued each cycle
system.switch_cpus.iq.issued_per_cycle::7       166242      0.12%     99.94% # Number of insts issued each cycle
system.switch_cpus.iq.issued_per_cycle::8        89698      0.06%    100.00% # Number of insts issued each cycle
system.switch_cpus.iq.issued_per_cycle::overflows            0      0.00%    100.00% # Number of insts issued each cycle
system.switch_cpus.iq.issued_per_cycle::min_value            0                       # Number of insts issued each cycle
system.switch_cpus.iq.issued_per_cycle::max_value            8                       # Number of insts issued each cycle
system.switch_cpus.iq.issued_per_cycle::total    143753517                       # Number of insts issued each cycle
system.switch_cpus.iq.rate                   0.174545                       # Inst issue rate
system.switch_cpus.iq.vec_alu_accesses              0                       # Number of vector alu accesses
system.switch_cpus.iq.vec_inst_queue_reads            0                       # Number of vector instruction queue reads
system.switch_cpus.iq.vec_inst_queue_wakeup_accesses            0                       # Number of vector instruction queue wakeup accesses
system.switch_cpus.iq.vec_inst_queue_writes            0                       # Number of vector instruction queue writes
system.switch_cpus.itb.rdAccesses                   0                       # TLB accesses on read requests
system.switch_cpus.itb.rdMisses                     0                       # TLB misses on read requests
system.switch_cpus.itb.wrAccesses             3074223                       # TLB accesses on write requests
system.switch_cpus.itb.wrMisses                   292                       # TLB misses on write requests
system.switch_cpus.memDep0.conflictingLoads       472245                       # Number of conflicting loads.
system.switch_cpus.memDep0.conflictingStores       731073                       # Number of conflicting stores.
system.switch_cpus.memDep0.insertedLoads      6976744                       # Number of loads inserted to the mem dependence unit.
system.switch_cpus.memDep0.insertedStores      2473916                       # Number of stores inserted to the mem dependence unit.
system.switch_cpus.misc_regfile_reads        12771914                       # number of misc regfile reads
system.switch_cpus.misc_regfile_writes              1                       # number of misc regfile writes
system.switch_cpus.numCycles                143754528                       # number of cpu cycles simulated
system.switch_cpus.numWorkItemsCompleted            0                       # number of work items this cpu completed
system.switch_cpus.numWorkItemsStarted              0                       # number of work items this cpu started
system.switch_cpus.rename.BlockCycles       129081648                       # Number of cycles rename is blocking
system.switch_cpus.rename.CommittedMaps      20622243                       # Number of HB maps that are committed
system.switch_cpus.rename.IQFullEvents        6231479                       # Number of times rename has blocked due to IQ full
system.switch_cpus.rename.IdleCycles          2179068                       # Number of cycles rename is idle
system.switch_cpus.rename.LQFullEvents         470841                       # Number of times rename has blocked due to LQ full
system.switch_cpus.rename.ROBFullEvents        120135                       # Number of times rename has blocked due to ROB full
system.switch_cpus.rename.RenameLookups      88652054                       # Number of register rename lookups that rename has made
system.switch_cpus.rename.RenamedInsts       33320570                       # Number of instructions processed by rename
system.switch_cpus.rename.RenamedOperands     41959045                       # Number of destination operands rename has renamed
system.switch_cpus.rename.RunCycles           3687334                       # Number of cycles rename is running
system.switch_cpus.rename.SQFullEvents        1971952                       # Number of times rename has blocked due to SQ full
system.switch_cpus.rename.SquashCycles         186760                       # Number of cycles rename is squashing
system.switch_cpus.rename.UnblockCycles       8618698                       # Number of cycles rename is unblocking
system.switch_cpus.rename.UndoneMaps         21336688                       # Number of HB maps that are undone due to squashing
system.switch_cpus.rename.int_rename_lookups     50662429                       # Number of integer rename lookups
system.switch_cpus.rename.serializeStallCycles            0                       # count of cycles rename stalled for serializing inst
system.switch_cpus.rename.serializingInsts            0                       # count of serializing insts renamed
system.switch_cpus.rename.skidInsts          11360097                       # count of insts added to the skid buffer
system.switch_cpus.rename.tempSerializingInsts            0                       # count of temporary serializing insts renamed
system.switch_cpus.rob.rob_reads            173516943                       # The number of ROB reads
system.switch_cpus.rob.rob_writes            67236485                       # The number of ROB writes
system.switch_cpus.timesIdled                      19                       # Number of times that the entire CPU went into an idle state and unscheduled itself
system.tol2bus.snoop_filter.hit_multi_requests            0                       # Number of requests hitting in the snoop filter with multiple (>1) holders of the requested data.
system.tol2bus.snoop_filter.hit_multi_snoops            0                       # Number of snoops hitting in the snoop filter with multiple (>1) holders of the requested data.
system.tol2bus.snoop_filter.hit_single_requests      2092291                       # Number of requests hitting in the snoop filter with a single holder of the requested data.
system.tol2bus.snoop_filter.hit_single_snoops        16075                       # Number of snoops hitting in the snoop filter with a single holder of the requested data.
system.tol2bus.snoop_filter.tot_requests      4185625                       # Total number of requests made to the snoop filter.
system.tol2bus.snoop_filter.tot_snoops          16075                       # Total number of snoops made to the snoop filter.
system.membus.pwrStateResidencyTicks::UNDEFINED 92852972701000                       # Cumulative time (in ticks) in various power states
system.membus.trans_dist::ReadResp            1812608                       # Transaction distribution
system.membus.trans_dist::WritebackDirty       137421                       # Transaction distribution
system.membus.trans_dist::CleanEvict          1750173                       # Transaction distribution
system.membus.trans_dist::ReadExReq             79104                       # Transaction distribution
system.membus.trans_dist::ReadExResp            79104                       # Transaction distribution
system.membus.trans_dist::ReadSharedReq       1812608                       # Transaction distribution
system.membus.pkt_count_system.l2.mem_side::system.mem_ctrls.port      5671018                       # Packet count per connected master and slave (bytes)
system.membus.pkt_count_system.l2.mem_side::total      5671018                       # Packet count per connected master and slave (bytes)
system.membus.pkt_count::total                5671018                       # Packet count per connected master and slave (bytes)
system.membus.pkt_size_system.l2.mem_side::system.mem_ctrls.port    129864512                       # Cumulative packet size per connected master and slave (bytes)
system.membus.pkt_size_system.l2.mem_side::total    129864512                       # Cumulative packet size per connected master and slave (bytes)
system.membus.pkt_size::total               129864512                       # Cumulative packet size per connected master and slave (bytes)
system.membus.snoops                                0                       # Total snoops (count)
system.membus.snoopTraffic                          0                       # Total snoop traffic (bytes)
system.membus.snoop_fanout::samples           1891712                       # Request fanout histogram
system.membus.snoop_fanout::mean                    0                       # Request fanout histogram
system.membus.snoop_fanout::stdev                   0                       # Request fanout histogram
system.membus.snoop_fanout::underflows              0      0.00%      0.00% # Request fanout histogram
system.membus.snoop_fanout::0                 1891712    100.00%    100.00% # Request fanout histogram
system.membus.snoop_fanout::1                       0      0.00%    100.00% # Request fanout histogram
system.membus.snoop_fanout::overflows               0      0.00%    100.00% # Request fanout histogram
system.membus.snoop_fanout::min_value               0                       # Request fanout histogram
system.membus.snoop_fanout::max_value               0                       # Request fanout histogram
system.membus.snoop_fanout::total             1891712                       # Request fanout histogram
system.membus.reqLayer2.occupancy          4792662500                       # Layer occupancy (ticks)
system.membus.reqLayer2.utilization               6.7                       # Layer utilization (%)
system.membus.respLayer1.occupancy         9852699250                       # Layer occupancy (ticks)
system.membus.respLayer1.utilization             13.7                       # Layer utilization (%)
system.switch_cpus.pwrStateResidencyTicks::OFF  71877274750                       # Cumulative time (in ticks) in various power states
system.switch_cpus.dtb.walker.pwrStateResidencyTicks::UNDEFINED 92852972701000                       # Cumulative time (in ticks) in various power states
system.switch_cpus.itb.walker.pwrStateResidencyTicks::UNDEFINED 92852972701000                       # Cumulative time (in ticks) in various power states
system.tol2bus.pwrStateResidencyTicks::UNDEFINED 92852972701000                       # Cumulative time (in ticks) in various power states
system.tol2bus.trans_dist::ReadResp           2013594                       # Transaction distribution
system.tol2bus.trans_dist::WritebackDirty       277976                       # Transaction distribution
system.tol2bus.trans_dist::CleanEvict         3705456                       # Transaction distribution
system.tol2bus.trans_dist::ReadExReq            79739                       # Transaction distribution
system.tol2bus.trans_dist::ReadExResp           79739                       # Transaction distribution
system.tol2bus.trans_dist::ReadCleanReq            18                       # Transaction distribution
system.tol2bus.trans_dist::ReadSharedReq      2013577                       # Transaction distribution
system.tol2bus.pkt_count_system.cpu.icache.mem_side::system.l2.cpu_side           36                       # Packet count per connected master and slave (bytes)
system.tol2bus.pkt_count_system.cpu.dcache.mem_side::system.l2.cpu_side      6278922                       # Packet count per connected master and slave (bytes)
system.tol2bus.pkt_count::total               6278958                       # Packet count per connected master and slave (bytes)
system.tol2bus.pkt_size_system.cpu.icache.mem_side::system.l2.cpu_side         1152                       # Cumulative packet size per connected master and slave (bytes)
system.tol2bus.pkt_size_system.cpu.dcache.mem_side::system.l2.cpu_side    142967680                       # Cumulative packet size per connected master and slave (bytes)
system.tol2bus.pkt_size::total              142968832                       # Cumulative packet size per connected master and slave (bytes)
system.tol2bus.snoops                         1891141                       # Total snoops (count)
system.tol2bus.snoopTraffic                   8794944                       # Total snoop traffic (bytes)
system.tol2bus.snoop_fanout::samples          3984475                       # Request fanout histogram
system.tol2bus.snoop_fanout::mean            0.004034                       # Request fanout histogram
system.tol2bus.snoop_fanout::stdev           0.063389                       # Request fanout histogram
system.tol2bus.snoop_fanout::underflows             0      0.00%      0.00% # Request fanout histogram
system.tol2bus.snoop_fanout::0                3968400     99.60%     99.60% # Request fanout histogram
system.tol2bus.snoop_fanout::1                  16075      0.40%    100.00% # Request fanout histogram
system.tol2bus.snoop_fanout::2                      0      0.00%    100.00% # Request fanout histogram
system.tol2bus.snoop_fanout::3                      0      0.00%    100.00% # Request fanout histogram
system.tol2bus.snoop_fanout::4                      0      0.00%    100.00% # Request fanout histogram
system.tol2bus.snoop_fanout::overflows              0      0.00%    100.00% # Request fanout histogram
system.tol2bus.snoop_fanout::min_value              0                       # Request fanout histogram
system.tol2bus.snoop_fanout::max_value              1                       # Request fanout histogram
system.tol2bus.snoop_fanout::total            3984475                       # Request fanout histogram
system.tol2bus.reqLayer0.occupancy         2233365500                       # Layer occupancy (ticks)
system.tol2bus.reqLayer0.utilization              3.1                       # Layer utilization (%)
system.tol2bus.respLayer1.occupancy        3139968000                       # Layer occupancy (ticks)
system.tol2bus.respLayer1.utilization             4.4                       # Layer utilization (%)
system.tol2bus.respLayer0.occupancy             25500                       # Layer occupancy (ticks)
system.tol2bus.respLayer0.utilization             0.0                       # Layer utilization (%)
system.voltage_domain.voltage                       1                       # Voltage in Volts
system.clk_domain.clock                          1000                       # Clock period in ticks
system.l2.pwrStateResidencyTicks::UNDEFINED 92852972701000                       # Cumulative time (in ticks) in various power states
system.l2.demand_hits::.switch_cpus.data       201622                       # number of demand (read+write) hits
system.l2.demand_hits::total                   201622                       # number of demand (read+write) hits
system.l2.overall_hits::.switch_cpus.data       201622                       # number of overall hits
system.l2.overall_hits::total                  201622                       # number of overall hits
system.l2.demand_misses::.cpu.inst                  1                       # number of demand (read+write) misses
system.l2.demand_misses::.cpu.data                  3                       # number of demand (read+write) misses
system.l2.demand_misses::.switch_cpus.inst           17                       # number of demand (read+write) misses
system.l2.demand_misses::.switch_cpus.data      1891691                       # number of demand (read+write) misses
system.l2.demand_misses::total                1891712                       # number of demand (read+write) misses
system.l2.overall_misses::.cpu.inst                 1                       # number of overall misses
system.l2.overall_misses::.cpu.data                 3                       # number of overall misses
system.l2.overall_misses::.switch_cpus.inst           17                       # number of overall misses
system.l2.overall_misses::.switch_cpus.data      1891691                       # number of overall misses
system.l2.overall_misses::total               1891712                       # number of overall misses
system.l2.demand_miss_latency::.switch_cpus.inst      1515000                       # number of demand (read+write) miss cycles
system.l2.demand_miss_latency::.switch_cpus.data 153099224000                       # number of demand (read+write) miss cycles
system.l2.demand_miss_latency::total     153100739000                       # number of demand (read+write) miss cycles
system.l2.overall_miss_latency::.switch_cpus.inst      1515000                       # number of overall miss cycles
system.l2.overall_miss_latency::.switch_cpus.data 153099224000                       # number of overall miss cycles
system.l2.overall_miss_latency::total    153100739000                       # number of overall miss cycles
system.l2.demand_accesses::.cpu.inst                1                       # number of demand (read+write) accesses
system.l2.demand_accesses::.cpu.data                3                       # number of demand (read+write) accesses
system.l2.demand_accesses::.switch_cpus.inst           17                       # number of demand (read+write) accesses
system.l2.demand_accesses::.switch_cpus.data      2093313                       # number of demand (read+write) accesses
system.l2.demand_accesses::total              2093334                       # number of demand (read+write) accesses
system.l2.overall_accesses::.cpu.inst               1                       # number of overall (read+write) accesses
system.l2.overall_accesses::.cpu.data               3                       # number of overall (read+write) accesses
system.l2.overall_accesses::.switch_cpus.inst           17                       # number of overall (read+write) accesses
system.l2.overall_accesses::.switch_cpus.data      2093313                       # number of overall (read+write) accesses
system.l2.overall_accesses::total             2093334                       # number of overall (read+write) accesses
system.l2.demand_miss_rate::.cpu.inst               1                       # miss rate for demand accesses
system.l2.demand_miss_rate::.cpu.data               1                       # miss rate for demand accesses
system.l2.demand_miss_rate::.switch_cpus.inst            1                       # miss rate for demand accesses
system.l2.demand_miss_rate::.switch_cpus.data     0.903683                       # miss rate for demand accesses
system.l2.demand_miss_rate::total            0.903684                       # miss rate for demand accesses
system.l2.overall_miss_rate::.cpu.inst              1                       # miss rate for overall accesses
system.l2.overall_miss_rate::.cpu.data              1                       # miss rate for overall accesses
system.l2.overall_miss_rate::.switch_cpus.inst            1                       # miss rate for overall accesses
system.l2.overall_miss_rate::.switch_cpus.data     0.903683                       # miss rate for overall accesses
system.l2.overall_miss_rate::total           0.903684                       # miss rate for overall accesses
system.l2.demand_avg_miss_latency::.switch_cpus.inst 89117.647059                       # average overall miss latency
system.l2.demand_avg_miss_latency::.switch_cpus.data 80932.469415                       # average overall miss latency
system.l2.demand_avg_miss_latency::total 80932.371841                       # average overall miss latency
system.l2.overall_avg_miss_latency::.switch_cpus.inst 89117.647059                       # average overall miss latency
system.l2.overall_avg_miss_latency::.switch_cpus.data 80932.469415                       # average overall miss latency
system.l2.overall_avg_miss_latency::total 80932.371841                       # average overall miss latency
system.l2.blocked_cycles::no_mshrs                  0                       # number of cycles access was blocked
system.l2.blocked_cycles::no_targets                0                       # number of cycles access was blocked
system.l2.blocked::no_mshrs                         0                       # number of cycles access was blocked
system.l2.blocked::no_targets                       0                       # number of cycles access was blocked
system.l2.avg_blocked_cycles::no_mshrs            nan                       # average number of cycles each access was blocked
system.l2.avg_blocked_cycles::no_targets          nan                       # average number of cycles each access was blocked
system.l2.writebacks::.writebacks              137421                       # number of writebacks
system.l2.writebacks::total                    137421                       # number of writebacks
system.l2.demand_mshr_misses::.switch_cpus.inst           17                       # number of demand (read+write) MSHR misses
system.l2.demand_mshr_misses::.switch_cpus.data      1891691                       # number of demand (read+write) MSHR misses
system.l2.demand_mshr_misses::total           1891708                       # number of demand (read+write) MSHR misses
system.l2.overall_mshr_misses::.switch_cpus.inst           17                       # number of overall MSHR misses
system.l2.overall_mshr_misses::.switch_cpus.data      1891691                       # number of overall MSHR misses
system.l2.overall_mshr_misses::total          1891708                       # number of overall MSHR misses
system.l2.demand_mshr_miss_latency::.switch_cpus.inst      1345000                       # number of demand (read+write) MSHR miss cycles
system.l2.demand_mshr_miss_latency::.switch_cpus.data 134182314000                       # number of demand (read+write) MSHR miss cycles
system.l2.demand_mshr_miss_latency::total 134183659000                       # number of demand (read+write) MSHR miss cycles
system.l2.overall_mshr_miss_latency::.switch_cpus.inst      1345000                       # number of overall MSHR miss cycles
system.l2.overall_mshr_miss_latency::.switch_cpus.data 134182314000                       # number of overall MSHR miss cycles
system.l2.overall_mshr_miss_latency::total 134183659000                       # number of overall MSHR miss cycles
system.l2.demand_mshr_miss_rate::.switch_cpus.inst            1                       # mshr miss rate for demand accesses
system.l2.demand_mshr_miss_rate::.switch_cpus.data     0.903683                       # mshr miss rate for demand accesses
system.l2.demand_mshr_miss_rate::total       0.903682                       # mshr miss rate for demand accesses
system.l2.overall_mshr_miss_rate::.switch_cpus.inst            1                       # mshr miss rate for overall accesses
system.l2.overall_mshr_miss_rate::.switch_cpus.data     0.903683                       # mshr miss rate for overall accesses
system.l2.overall_mshr_miss_rate::total      0.903682                       # mshr miss rate for overall accesses
system.l2.demand_avg_mshr_miss_latency::.switch_cpus.inst 79117.647059                       # average overall mshr miss latency
system.l2.demand_avg_mshr_miss_latency::.switch_cpus.data 70932.469415                       # average overall mshr miss latency
system.l2.demand_avg_mshr_miss_latency::total 70932.542972                       # average overall mshr miss latency
system.l2.overall_avg_mshr_miss_latency::.switch_cpus.inst 79117.647059                       # average overall mshr miss latency
system.l2.overall_avg_mshr_miss_latency::.switch_cpus.data 70932.469415                       # average overall mshr miss latency
system.l2.overall_avg_mshr_miss_latency::total 70932.542972                       # average overall mshr miss latency
system.l2.replacements                        1891141                       # number of replacements
system.l2.WritebackDirty_hits::.writebacks       140555                       # number of WritebackDirty hits
system.l2.WritebackDirty_hits::total           140555                       # number of WritebackDirty hits
system.l2.WritebackDirty_accesses::.writebacks       140555                       # number of WritebackDirty accesses(hits+misses)
system.l2.WritebackDirty_accesses::total       140555                       # number of WritebackDirty accesses(hits+misses)
system.l2.CleanEvict_mshr_misses::.writebacks        12529                       # number of CleanEvict MSHR misses
system.l2.CleanEvict_mshr_misses::total         12529                       # number of CleanEvict MSHR misses
system.l2.CleanEvict_mshr_miss_rate::.writebacks          inf                       # mshr miss rate for CleanEvict accesses
system.l2.CleanEvict_mshr_miss_rate::total          inf                       # mshr miss rate for CleanEvict accesses
system.l2.ReadExReq_hits::.switch_cpus.data          635                       # number of ReadExReq hits
system.l2.ReadExReq_hits::total                   635                       # number of ReadExReq hits
system.l2.ReadExReq_misses::.switch_cpus.data        79104                       # number of ReadExReq misses
system.l2.ReadExReq_misses::total               79104                       # number of ReadExReq misses
system.l2.ReadExReq_miss_latency::.switch_cpus.data   6755240000                       # number of ReadExReq miss cycles
system.l2.ReadExReq_miss_latency::total    6755240000                       # number of ReadExReq miss cycles
system.l2.ReadExReq_accesses::.switch_cpus.data        79739                       # number of ReadExReq accesses(hits+misses)
system.l2.ReadExReq_accesses::total             79739                       # number of ReadExReq accesses(hits+misses)
system.l2.ReadExReq_miss_rate::.switch_cpus.data     0.992037                       # miss rate for ReadExReq accesses
system.l2.ReadExReq_miss_rate::total         0.992037                       # miss rate for ReadExReq accesses
system.l2.ReadExReq_avg_miss_latency::.switch_cpus.data 85396.945793                       # average ReadExReq miss latency
system.l2.ReadExReq_avg_miss_latency::total 85396.945793                       # average ReadExReq miss latency
system.l2.ReadExReq_mshr_misses::.switch_cpus.data        79104                       # number of ReadExReq MSHR misses
system.l2.ReadExReq_mshr_misses::total          79104                       # number of ReadExReq MSHR misses
system.l2.ReadExReq_mshr_miss_latency::.switch_cpus.data   5964200000                       # number of ReadExReq MSHR miss cycles
system.l2.ReadExReq_mshr_miss_latency::total   5964200000                       # number of ReadExReq MSHR miss cycles
system.l2.ReadExReq_mshr_miss_rate::.switch_cpus.data     0.992037                       # mshr miss rate for ReadExReq accesses
system.l2.ReadExReq_mshr_miss_rate::total     0.992037                       # mshr miss rate for ReadExReq accesses
system.l2.ReadExReq_avg_mshr_miss_latency::.switch_cpus.data 75396.945793                       # average ReadExReq mshr miss latency
system.l2.ReadExReq_avg_mshr_miss_latency::total 75396.945793                       # average ReadExReq mshr miss latency
system.l2.ReadCleanReq_misses::.cpu.inst            1                       # number of ReadCleanReq misses
system.l2.ReadCleanReq_misses::.switch_cpus.inst           17                       # number of ReadCleanReq misses
system.l2.ReadCleanReq_misses::total               18                       # number of ReadCleanReq misses
system.l2.ReadCleanReq_miss_latency::.switch_cpus.inst      1515000                       # number of ReadCleanReq miss cycles
system.l2.ReadCleanReq_miss_latency::total      1515000                       # number of ReadCleanReq miss cycles
system.l2.ReadCleanReq_accesses::.cpu.inst            1                       # number of ReadCleanReq accesses(hits+misses)
system.l2.ReadCleanReq_accesses::.switch_cpus.inst           17                       # number of ReadCleanReq accesses(hits+misses)
system.l2.ReadCleanReq_accesses::total             18                       # number of ReadCleanReq accesses(hits+misses)
system.l2.ReadCleanReq_miss_rate::.cpu.inst            1                       # miss rate for ReadCleanReq accesses
system.l2.ReadCleanReq_miss_rate::.switch_cpus.inst            1                       # miss rate for ReadCleanReq accesses
system.l2.ReadCleanReq_miss_rate::total             1                       # miss rate for ReadCleanReq accesses
system.l2.ReadCleanReq_avg_miss_latency::.switch_cpus.inst 89117.647059                       # average ReadCleanReq miss latency
system.l2.ReadCleanReq_avg_miss_latency::total 84166.666667                       # average ReadCleanReq miss latency
system.l2.ReadCleanReq_mshr_misses::.switch_cpus.inst           17                       # number of ReadCleanReq MSHR misses
system.l2.ReadCleanReq_mshr_misses::total           17                       # number of ReadCleanReq MSHR misses
system.l2.ReadCleanReq_mshr_miss_latency::.switch_cpus.inst      1345000                       # number of ReadCleanReq MSHR miss cycles
system.l2.ReadCleanReq_mshr_miss_latency::total      1345000                       # number of ReadCleanReq MSHR miss cycles
system.l2.ReadCleanReq_mshr_miss_rate::.switch_cpus.inst            1                       # mshr miss rate for ReadCleanReq accesses
system.l2.ReadCleanReq_mshr_miss_rate::total     0.944444                       # mshr miss rate for ReadCleanReq accesses
system.l2.ReadCleanReq_avg_mshr_miss_latency::.switch_cpus.inst 79117.647059                       # average ReadCleanReq mshr miss latency
system.l2.ReadCleanReq_avg_mshr_miss_latency::total 79117.647059                       # average ReadCleanReq mshr miss latency
system.l2.ReadSharedReq_hits::.switch_cpus.data       200987                       # number of ReadSharedReq hits
system.l2.ReadSharedReq_hits::total            200987                       # number of ReadSharedReq hits
system.l2.ReadSharedReq_misses::.cpu.data            3                       # number of ReadSharedReq misses
[...]
system.cpu.icache.tags.data_accesses         22470049                       # Number of data accesses
system.cpu.dtb.walker.pwrStateResidencyTicks::UNDEFINED 93058956238000                       # Cumulative time (in ticks) in various power states
system.cpu.interrupts.clk_domain.clock           8000                       # Clock period in ticks
system.cpu.itb_walker_cache.pwrStateResidencyTicks::UNDEFINED 93058956238000                       # Cumulative time (in ticks) in various power states
system.cpu.itb_walker_cache.blocked_cycles::no_mshrs            0                       # number of cycles access was blocked
system.cpu.itb_walker_cache.blocked_cycles::no_targets            0                       # number of cycles access was blocked
system.cpu.itb_walker_cache.blocked::no_mshrs            0                       # number of cycles access was blocked
system.cpu.itb_walker_cache.blocked::no_targets            0                       # number of cycles access was blocked
system.cpu.itb_walker_cache.avg_blocked_cycles::no_mshrs          nan                       # average number of cycles each access was blocked
system.cpu.itb_walker_cache.avg_blocked_cycles::no_targets          nan                       # average number of cycles each access was blocked
system.cpu.itb_walker_cache.replacements            0                       # number of replacements
system.cpu.itb_walker_cache.tags.pwrStateResidencyTicks::UNDEFINED 93058956238000                       # Cumulative time (in ticks) in various power states
system.cpu.itb_walker_cache.tags.tagsinuse            0                       # Cycle average of tags in use
system.cpu.itb_walker_cache.tags.total_refs            0                       # Total number of references to valid blocks.
system.cpu.itb_walker_cache.tags.sampled_refs            0                       # Sample count of references to valid blocks.
system.cpu.itb_walker_cache.tags.avg_refs          nan                       # Average number of references to valid blocks.
system.cpu.itb_walker_cache.tags.warmup_cycle            0                       # Cycle when the warmup percentage was hit.
system.cpu.itb_walker_cache.tags.tag_accesses            0                       # Number of tag accesses
system.cpu.itb_walker_cache.tags.data_accesses            0                       # Number of data accesses
system.cpu.itb.walker.pwrStateResidencyTicks::UNDEFINED 93058956238000                       # Cumulative time (in ticks) in various power states
system.cpu.dtb_walker_cache.pwrStateResidencyTicks::UNDEFINED 93058956238000                       # Cumulative time (in ticks) in various power states
system.cpu.dtb_walker_cache.blocked_cycles::no_mshrs            0                       # number of cycles access was blocked
system.cpu.dtb_walker_cache.blocked_cycles::no_targets            0                       # number of cycles access was blocked
system.cpu.dtb_walker_cache.blocked::no_mshrs            0                       # number of cycles access was blocked
system.cpu.dtb_walker_cache.blocked::no_targets            0                       # number of cycles access was blocked
system.cpu.dtb_walker_cache.avg_blocked_cycles::no_mshrs          nan                       # average number of cycles each access was blocked
system.cpu.dtb_walker_cache.avg_blocked_cycles::no_targets          nan                       # average number of cycles each access was blocked
system.cpu.dtb_walker_cache.replacements            0                       # number of replacements
system.cpu.dtb_walker_cache.tags.pwrStateResidencyTicks::UNDEFINED 93058956238000                       # Cumulative time (in ticks) in various power states
system.cpu.dtb_walker_cache.tags.tagsinuse            0                       # Cycle average of tags in use
system.cpu.dtb_walker_cache.tags.total_refs            0                       # Total number of references to valid blocks.
system.cpu.dtb_walker_cache.tags.sampled_refs            0                       # Sample count of references to valid blocks.
system.cpu.dtb_walker_cache.tags.avg_refs          nan                       # Average number of references to valid blocks.
system.cpu.dtb_walker_cache.tags.warmup_cycle            0                       # Cycle when the warmup percentage was hit.
system.cpu.dtb_walker_cache.tags.tag_accesses            0                       # Number of tag accesses
system.cpu.dtb_walker_cache.tags.data_accesses            0                       # Number of data accesses
system.cpu.dcache.pwrStateResidencyTicks::UNDEFINED 93058956238000                       # Cumulative time (in ticks) in various power states
system.cpu.dcache.demand_hits::.cpu.data            1                       # number of demand (read+write) hits
system.cpu.dcache.demand_hits::.switch_cpus.data     13388865                       # number of demand (read+write) hits
system.cpu.dcache.demand_hits::total         13388866                       # number of demand (read+write) hits
system.cpu.dcache.overall_hits::.cpu.data            1                       # number of overall hits
system.cpu.dcache.overall_hits::.switch_cpus.data     13388865                       # number of overall hits
system.cpu.dcache.overall_hits::total        13388866                       # number of overall hits
system.cpu.dcache.demand_misses::.cpu.data            3                       # number of demand (read+write) misses
system.cpu.dcache.demand_misses::.switch_cpus.data      8857000                       # number of demand (read+write) misses
system.cpu.dcache.demand_misses::total        8857003                       # number of demand (read+write) misses
system.cpu.dcache.overall_misses::.cpu.data            3                       # number of overall misses
system.cpu.dcache.overall_misses::.switch_cpus.data      8857000                       # number of overall misses
system.cpu.dcache.overall_misses::total       8857003                       # number of overall misses
system.cpu.dcache.demand_miss_latency::.switch_cpus.data 708338490899                       # number of demand (read+write) miss cycles
system.cpu.dcache.demand_miss_latency::total 708338490899                       # number of demand (read+write) miss cycles
system.cpu.dcache.overall_miss_latency::.switch_cpus.data 708338490899                       # number of overall miss cycles
system.cpu.dcache.overall_miss_latency::total 708338490899                       # number of overall miss cycles
system.cpu.dcache.demand_accesses::.cpu.data            4                       # number of demand (read+write) accesses
system.cpu.dcache.demand_accesses::.switch_cpus.data     22245865                       # number of demand (read+write) accesses
system.cpu.dcache.demand_accesses::total     22245869                       # number of demand (read+write) accesses
system.cpu.dcache.overall_accesses::.cpu.data            4                       # number of overall (read+write) accesses
system.cpu.dcache.overall_accesses::.switch_cpus.data     22245865                       # number of overall (read+write) accesses
system.cpu.dcache.overall_accesses::total     22245869                       # number of overall (read+write) accesses
system.cpu.dcache.demand_miss_rate::.cpu.data     0.750000                       # miss rate for demand accesses
system.cpu.dcache.demand_miss_rate::.switch_cpus.data     0.398141                       # miss rate for demand accesses
system.cpu.dcache.demand_miss_rate::total     0.398141                       # miss rate for demand accesses
system.cpu.dcache.overall_miss_rate::.cpu.data     0.750000                       # miss rate for overall accesses
system.cpu.dcache.overall_miss_rate::.switch_cpus.data     0.398141                       # miss rate for overall accesses
system.cpu.dcache.overall_miss_rate::total     0.398141                       # miss rate for overall accesses
system.cpu.dcache.demand_avg_miss_latency::.switch_cpus.data 79974.990505                       # average overall miss latency
system.cpu.dcache.demand_avg_miss_latency::total 79974.963416                       # average overall miss latency
system.cpu.dcache.overall_avg_miss_latency::.switch_cpus.data 79974.990505                       # average overall miss latency
system.cpu.dcache.overall_avg_miss_latency::total 79974.963416                       # average overall miss latency
system.cpu.dcache.blocked_cycles::no_mshrs     38448896                       # number of cycles access was blocked
system.cpu.dcache.blocked_cycles::no_targets            0                       # number of cycles access was blocked
system.cpu.dcache.blocked::no_mshrs           1396378                       # number of cycles access was blocked
system.cpu.dcache.blocked::no_targets               0                       # number of cycles access was blocked
system.cpu.dcache.avg_blocked_cycles::no_mshrs    27.534733                       # average number of cycles each access was blocked
system.cpu.dcache.avg_blocked_cycles::no_targets          nan                       # average number of cycles each access was blocked
system.cpu.dcache.writebacks::.writebacks       550727                       # number of writebacks
system.cpu.dcache.writebacks::total            550727                       # number of writebacks
system.cpu.dcache.demand_mshr_hits::.switch_cpus.data      1058625                       # number of demand (read+write) MSHR hits
system.cpu.dcache.demand_mshr_hits::total      1058625                       # number of demand (read+write) MSHR hits
system.cpu.dcache.overall_mshr_hits::.switch_cpus.data      1058625                       # number of overall MSHR hits
system.cpu.dcache.overall_mshr_hits::total      1058625                       # number of overall MSHR hits
system.cpu.dcache.demand_mshr_misses::.switch_cpus.data      7798375                       # number of demand (read+write) MSHR misses
system.cpu.dcache.demand_mshr_misses::total      7798375                       # number of demand (read+write) MSHR misses
system.cpu.dcache.overall_mshr_misses::.switch_cpus.data      7798375                       # number of overall MSHR misses
system.cpu.dcache.overall_mshr_misses::total      7798375                       # number of overall MSHR misses
system.cpu.dcache.demand_mshr_miss_latency::.switch_cpus.data 633733759899                       # number of demand (read+write) MSHR miss cycles
system.cpu.dcache.demand_mshr_miss_latency::total 633733759899                       # number of demand (read+write) MSHR miss cycles
system.cpu.dcache.overall_mshr_miss_latency::.switch_cpus.data 633733759899                       # number of overall MSHR miss cycles
system.cpu.dcache.overall_mshr_miss_latency::total 633733759899                       # number of overall MSHR miss cycles
system.cpu.dcache.demand_mshr_miss_rate::.switch_cpus.data     0.350554                       # mshr miss rate for demand accesses
system.cpu.dcache.demand_mshr_miss_rate::total     0.350554                       # mshr miss rate for demand accesses
system.cpu.dcache.overall_mshr_miss_rate::.switch_cpus.data     0.350554                       # mshr miss rate for overall accesses
system.cpu.dcache.overall_mshr_miss_rate::total     0.350554                       # mshr miss rate for overall accesses
system.cpu.dcache.demand_avg_mshr_miss_latency::.switch_cpus.data 81264.848112                       # average overall mshr miss latency
system.cpu.dcache.demand_avg_mshr_miss_latency::total 81264.848112                       # average overall mshr miss latency
system.cpu.dcache.overall_avg_mshr_miss_latency::.switch_cpus.data 81264.848112                       # average overall mshr miss latency
system.cpu.dcache.overall_avg_mshr_miss_latency::total 81264.848112                       # average overall mshr miss latency
system.cpu.dcache.replacements                7797351                       # number of replacements
system.cpu.dcache.ReadReq_hits::.cpu.data            1                       # number of ReadReq hits
system.cpu.dcache.ReadReq_hits::.switch_cpus.data      9075823                       # number of ReadReq hits
system.cpu.dcache.ReadReq_hits::total         9075824                       # number of ReadReq hits
system.cpu.dcache.ReadReq_misses::.cpu.data            3                       # number of ReadReq misses
system.cpu.dcache.ReadReq_misses::.switch_cpus.data      8557264                       # number of ReadReq misses
system.cpu.dcache.ReadReq_misses::total       8557267                       # number of ReadReq misses
system.cpu.dcache.ReadReq_miss_latency::.switch_cpus.data 682058634000                       # number of ReadReq miss cycles
system.cpu.dcache.ReadReq_miss_latency::total 682058634000                       # number of ReadReq miss cycles
system.cpu.dcache.ReadReq_accesses::.cpu.data            4                       # number of ReadReq accesses(hits+misses)
system.cpu.dcache.ReadReq_accesses::.switch_cpus.data     17633087                       # number of ReadReq accesses(hits+misses)
system.cpu.dcache.ReadReq_accesses::total     17633091                       # number of ReadReq accesses(hits+misses)
system.cpu.dcache.ReadReq_miss_rate::.cpu.data     0.750000                       # miss rate for ReadReq accesses
system.cpu.dcache.ReadReq_miss_rate::.switch_cpus.data     0.485296                       # miss rate for ReadReq accesses
system.cpu.dcache.ReadReq_miss_rate::total     0.485296                       # miss rate for ReadReq accesses
system.cpu.dcache.ReadReq_avg_miss_latency::.switch_cpus.data 79705.222838                       # average ReadReq miss latency
system.cpu.dcache.ReadReq_avg_miss_latency::total 79705.194895                       # average ReadReq miss latency
system.cpu.dcache.ReadReq_mshr_hits::.switch_cpus.data      1058614                       # number of ReadReq MSHR hits
system.cpu.dcache.ReadReq_mshr_hits::total      1058614                       # number of ReadReq MSHR hits
system.cpu.dcache.ReadReq_mshr_misses::.switch_cpus.data      7498650                       # number of ReadReq MSHR misses
system.cpu.dcache.ReadReq_mshr_misses::total      7498650                       # number of ReadReq MSHR misses
system.cpu.dcache.ReadReq_mshr_miss_latency::.switch_cpus.data 607753889000                       # number of ReadReq MSHR miss cycles
system.cpu.dcache.ReadReq_mshr_miss_latency::total 607753889000                       # number of ReadReq MSHR miss cycles
system.cpu.dcache.ReadReq_mshr_miss_rate::.switch_cpus.data     0.425260                       # mshr miss rate for ReadReq accesses
system.cpu.dcache.ReadReq_mshr_miss_rate::total     0.425260                       # mshr miss rate for ReadReq accesses
system.cpu.dcache.ReadReq_avg_mshr_miss_latency::.switch_cpus.data 81048.440586                       # average ReadReq mshr miss latency
system.cpu.dcache.ReadReq_avg_mshr_miss_latency::total 81048.440586                       # average ReadReq mshr miss latency
system.cpu.dcache.WriteReq_hits::.switch_cpus.data      4313042                       # number of WriteReq hits
system.cpu.dcache.WriteReq_hits::total        4313042                       # number of WriteReq hits
system.cpu.dcache.WriteReq_misses::.switch_cpus.data       299736                       # number of WriteReq misses
system.cpu.dcache.WriteReq_misses::total       299736                       # number of WriteReq misses
system.cpu.dcache.WriteReq_miss_latency::.switch_cpus.data  26279856899                       # number of WriteReq miss cycles
system.cpu.dcache.WriteReq_miss_latency::total  26279856899                       # number of WriteReq miss cycles
system.cpu.dcache.WriteReq_accesses::.switch_cpus.data      4612778                       # number of WriteReq accesses(hits+misses)
system.cpu.dcache.WriteReq_accesses::total      4612778                       # number of WriteReq accesses(hits+misses)
system.cpu.dcache.WriteReq_miss_rate::.switch_cpus.data     0.064979                       # miss rate for WriteReq accesses
system.cpu.dcache.WriteReq_miss_rate::total     0.064979                       # miss rate for WriteReq accesses
system.cpu.dcache.WriteReq_avg_miss_latency::.switch_cpus.data 87676.678474                       # average WriteReq miss latency
system.cpu.dcache.WriteReq_avg_miss_latency::total 87676.678474                       # average WriteReq miss latency
system.cpu.dcache.WriteReq_mshr_hits::.switch_cpus.data           11                       # number of WriteReq MSHR hits
system.cpu.dcache.WriteReq_mshr_hits::total           11                       # number of WriteReq MSHR hits
system.cpu.dcache.WriteReq_mshr_misses::.switch_cpus.data       299725                       # number of WriteReq MSHR misses
system.cpu.dcache.WriteReq_mshr_misses::total       299725                       # number of WriteReq MSHR misses
system.cpu.dcache.WriteReq_mshr_miss_latency::.switch_cpus.data  25979870899                       # number of WriteReq MSHR miss cycles
system.cpu.dcache.WriteReq_mshr_miss_latency::total  25979870899                       # number of WriteReq MSHR miss cycles
system.cpu.dcache.WriteReq_mshr_miss_rate::.switch_cpus.data     0.064977                       # mshr miss rate for WriteReq accesses
system.cpu.dcache.WriteReq_mshr_miss_rate::total     0.064977                       # mshr miss rate for WriteReq accesses
system.cpu.dcache.WriteReq_avg_mshr_miss_latency::.switch_cpus.data 86679.025437                       # average WriteReq mshr miss latency
system.cpu.dcache.WriteReq_avg_mshr_miss_latency::total 86679.025437                       # average WriteReq mshr miss latency
system.cpu.dcache.tags.pwrStateResidencyTicks::UNDEFINED 93058956238000                       # Cumulative time (in ticks) in various power states
system.cpu.dcache.tags.tagsinuse             3.057262                       # Cycle average of tags in use
system.cpu.dcache.tags.total_refs            21187241                       # Total number of references to valid blocks.
system.cpu.dcache.tags.sampled_refs           7798375                       # Sample count of references to valid blocks.
system.cpu.dcache.tags.avg_refs              2.716879                       # Average number of references to valid blocks.
system.cpu.dcache.tags.warmup_cycle      92781095431500                       # Cycle when the warmup percentage was hit.
system.cpu.dcache.tags.occ_blocks::.cpu.data     0.000002                       # Average occupied blocks per requestor
system.cpu.dcache.tags.occ_blocks::.switch_cpus.data     3.057260                       # Average occupied blocks per requestor
system.cpu.dcache.tags.occ_percent::.cpu.data     0.000000                       # Average percentage of cache occupancy
system.cpu.dcache.tags.occ_percent::.switch_cpus.data     0.002986                       # Average percentage of cache occupancy
system.cpu.dcache.tags.occ_percent::total     0.002986                       # Average percentage of cache occupancy
system.cpu.dcache.tags.occ_task_id_blocks::1024         1024                       # Occupied blocks per task id
system.cpu.dcache.tags.age_task_id_blocks_1024::0          325                       # Occupied blocks per task id
system.cpu.dcache.tags.age_task_id_blocks_1024::1          696                       # Occupied blocks per task id
system.cpu.dcache.tags.age_task_id_blocks_1024::2            3                       # Occupied blocks per task id
system.cpu.dcache.tags.occ_task_id_percent::1024            1                       # Percentage of cache occupancy per task id
system.cpu.dcache.tags.tag_accesses          52290113                       # Number of tag accesses
system.cpu.dcache.tags.data_accesses         52290113                       # Number of data accesses

---------- End Simulation Statistics   ----------
