
---------- Begin Simulation Statistics ----------
final_tick                               120508338329500                       # Number of ticks from beginning of simulation (restored from checkpoints and never reset)
host_inst_rate                                  74250                       # Simulator instruction rate (inst/s)
host_mem_usage                                 792200                       # Number of bytes of host memory used
host_op_rate                                   119266                       # Simulator op (including micro ops) rate (op/s)
host_seconds                                   134.68                       # Real time elapsed on the host
host_tick_rate                               21519452                       # Simulator tick rate (ticks/s)
sim_freq                                 1000000000000                       # Frequency of simulated ticks
sim_insts                                    10000012                       # Number of instructions simulated
sim_ops                                      16062752                       # Number of ops (including micro ops) simulated
sim_seconds                                  0.002898                       # Number of seconds simulated
sim_ticks                                  2898253250                       # Number of ticks simulated
system.cpu.committedInsts                          11                       # Number of instructions committed
system.cpu.committedOps                            16                       # Number of ops (including micro ops) committed
system.cpu.dtb.rdAccesses                           6                       # TLB accesses on read requests
system.cpu.dtb.rdMisses                             0                       # TLB misses on read requests
system.cpu.dtb.wrAccesses                           2                       # TLB accesses on write requests
system.cpu.dtb.wrMisses                             0                       # TLB misses on write requests
system.cpu.idle_fraction                            0                       # Percentage of idle cycles
system.cpu.itb.rdAccesses                           0                       # TLB accesses on read requests
system.cpu.itb.rdMisses                             0                       # TLB misses on read requests
system.cpu.itb.wrAccesses                          15                       # TLB accesses on write requests
system.cpu.itb.wrMisses                             0                       # TLB misses on write requests
system.cpu.not_idle_fraction                        1                       # Percentage of non-idle cycles
system.cpu.numCycles                               20                       # number of cpu cycles simulated
system.cpu.numWorkItemsCompleted                    0                       # number of work items this cpu completed
system.cpu.numWorkItemsStarted                      0                       # number of work items this cpu started
system.cpu.num_busy_cycles                         20                       # Number of busy cycles
system.cpu.num_cc_register_reads                   10                       # number of times the CC registers were read
system.cpu.num_cc_register_writes                  10                       # number of times the CC registers were written
system.cpu.num_conditional_control_insts            0                       # number of instructions that are conditional controls
system.cpu.num_fp_alu_accesses                      0                       # Number of float alu accesses
system.cpu.num_fp_insts                             0                       # number of float instructions
system.cpu.num_fp_register_reads                    0                       # number of times the floating registers were read
system.cpu.num_fp_register_writes                   0                       # number of times the floating registers were written
system.cpu.num_func_calls                           0                       # number of times a function call or return occured
system.cpu.num_idle_cycles                          0                       # Number of idle cycles
system.cpu.num_int_alu_accesses                    16                       # Number of integer alu accesses
system.cpu.num_int_insts                           16                       # number of integer instructions
system.cpu.num_int_register_reads                  42                       # number of times the integer registers were read
system.cpu.num_int_register_writes                 14                       # number of times the integer registers were written
system.cpu.num_load_insts                           6                       # Number of load instructions
system.cpu.num_mem_refs                             8                       # number of memory refs
system.cpu.num_store_insts                          2                       # Number of store instructions
system.cpu.num_vec_alu_accesses                     0                       # Number of vector alu accesses
system.cpu.num_vec_insts                            0                       # number of vector instructions
system.cpu.num_vec_register_reads                   0                       # number of times the vector registers were read
system.cpu.num_vec_register_writes                  0                       # number of times the vector registers were written
system.cpu.op_class::No_OpClass                     0      0.00%      0.00% # Class of executed instruction
system.cpu.op_class::IntAlu                         8     50.00%     50.00% # Class of executed instruction
system.cpu.op_class::IntMult                        0      0.00%     50.00% # Class of executed instruction
system.cpu.op_class::IntDiv                         0      0.00%     50.00% # Class of executed instruction
system.cpu.op_class::FloatAdd                       0      0.00%     50.00% # Class of executed instruction
system.cpu.op_class::FloatCmp                       0      0.00%     50.00% # Class of executed instruction
system.cpu.op_class::FloatCvt                       0      0.00%     50.00% # Class of executed instruction
system.cpu.op_class::FloatMult                      0      0.00%     50.00% # Class of executed instruction
system.cpu.op_class::FloatMultAcc                   0      0.00%     50.00% # Class of executed instruction
system.cpu.op_class::FloatDiv                       0      0.00%     50.00% # Class of executed instruction
system.cpu.op_class::FloatMisc                      0      0.00%     50.00% # Class of executed instruction
system.cpu.op_class::FloatSqrt                      0      0.00%     50.00% # Class of executed instruction
system.cpu.op_class::SimdAdd                        0      0.00%     50.00% # Class of executed instruction
system.cpu.op_class::SimdAddAcc                     0      0.00%     50.00% # Class of executed instruction
system.cpu.op_class::SimdAlu                        0      0.00%     50.00% # Class of executed instruction
system.cpu.op_class::SimdCmp                        0      0.00%     50.00% # Class of executed instruction
system.cpu.op_class::SimdCvt                        0      0.00%     50.00% # Class of executed instruction
system.cpu.op_class::SimdMisc                       0      0.00%     50.00% # Class of executed instruction
system.cpu.op_class::SimdMult                       0      0.00%     50.00% # Class of executed instruction
system.cpu.op_class::SimdMultAcc                    0      0.00%     50.00% # Class of executed instruction
system.cpu.op_class::SimdShift                      0      0.00%     50.00% # Class of executed instruction
system.cpu.op_class::SimdShiftAcc                   0      0.00%     50.00% # Class of executed instruction
system.cpu.op_class::SimdDiv                        0      0.00%     50.00% # Class of executed instruction
system.cpu.op_class::SimdSqrt                       0      0.00%     50.00% # Class of executed instruction
system.cpu.op_class::SimdFloatAdd                   0      0.00%     50.00% # Class of executed instruction
system.cpu.op_class::SimdFloatAlu                   0      0.00%     50.00% # Class of executed instruction
system.cpu.op_class::SimdFloatCmp                   0      0.00%     50.00% # Class of executed instruction
system.cpu.op_class::SimdFloatCvt                   0      0.00%     50.00% # Class of executed instruction
system.cpu.op_class::SimdFloatDiv                   0      0.00%     50.00% # Class of executed instruction
system.cpu.op_class::SimdFloatMisc                  0      0.00%     50.00% # Class of executed instruction
system.cpu.op_class::SimdFloatMult                  0      0.00%     50.00% # Class of executed instruction
system.cpu.op_class::SimdFloatMultAcc               0      0.00%     50.00% # Class of executed instruction
system.cpu.op_class::SimdFloatSqrt                  0      0.00%     50.00% # Class of executed instruction
system.cpu.op_class::SimdReduceAdd                  0      0.00%     50.00% # Class of executed instruction
system.cpu.op_class::SimdReduceAlu                  0      0.00%     50.00% # Class of executed instruction
system.cpu.op_class::SimdReduceCmp                  0      0.00%     50.00% # Class of executed instruction
system.cpu.op_class::SimdFloatReduceAdd             0      0.00%     50.00% # Class of executed instruction
system.cpu.op_class::SimdFloatReduceCmp             0      0.00%     50.00% # Class of executed instruction
system.cpu.op_class::SimdAes                        0      0.00%     50.00% # Class of executed instruction
system.cpu.op_class::SimdAesMix                     0      0.00%     50.00% # Class of executed instruction
system.cpu.op_class::SimdSha1Hash                   0      0.00%     50.00% # Class of executed instruction
system.cpu.op_class::SimdSha1Hash2                  0      0.00%     50.00% # Class of executed instruction
system.cpu.op_class::SimdSha256Hash                 0      0.00%     50.00% # Class of executed instruction
system.cpu.op_class::SimdSha256Hash2                0      0.00%     50.00% # Class of executed instruction
system.cpu.op_class::SimdShaSigma2                  0      0.00%     50.00% # Class of executed instruction
system.cpu.op_class::SimdShaSigma3                  0      0.00%     50.00% # Class of executed instruction
system.cpu.op_class::SimdPredAlu                    0      0.00%     50.00% # Class of executed instruction
system.cpu.op_class::MemRead                        6     37.50%     87.50% # Class of executed instruction
system.cpu.op_class::MemWrite                       2     12.50%    100.00% # Class of executed instruction
system.cpu.op_class::FloatMemRead                   0      0.00%    100.00% # Class of executed instruction
system.cpu.op_class::FloatMemWrite                  0      0.00%    100.00% # Class of executed instruction
system.cpu.op_class::IprAccess                      0      0.00%    100.00% # Class of executed instruction
system.cpu.op_class::InstPrefetch                   0      0.00%    100.00% # Class of executed instruction
system.cpu.op_class::total                         16                       # Class of executed instruction
system.cpu.workload.numSyscalls                     0                       # Number of system calls
system.membus.snoop_filter.hit_multi_requests            0                       # Number of requests hitting in the snoop filter with multiple (>1) holders of the requested data.
system.membus.snoop_filter.hit_multi_snoops            0                       # Number of snoops hitting in the snoop filter with multiple (>1) holders of the requested data.
system.membus.snoop_filter.hit_single_requests         5571                       # Number of requests hitting in the snoop filter with a single holder of the requested data.
system.membus.snoop_filter.hit_single_snoops            0                       # Number of snoops hitting in the snoop filter with a single holder of the requested data.
system.membus.snoop_filter.tot_requests         13151                       # Total number of requests made to the snoop filter.
system.membus.snoop_filter.tot_snoops               0                       # Total number of snoops made to the snoop filter.
system.switch_cpus.branchPred.BTBCorrect            0                       # Number of correct BTB predictions (this stat may not work properly.
system.switch_cpus.branchPred.BTBHitPct      0.000000                       # BTB Hit Percentage
system.switch_cpus.branchPred.BTBHits               0                       # Number of BTB hits
system.switch_cpus.branchPred.BTBLookups       619256                       # Number of BTB lookups
system.switch_cpus.branchPred.RASInCorrect            1                       # Number of incorrect RAS predictions.
system.switch_cpus.branchPred.condIncorrect        20819                       # Number of conditional branches incorrect
system.switch_cpus.branchPred.condPredicted       870957                       # Number of conditional branches predicted
system.switch_cpus.branchPred.indirectHits       503933                       # Number of indirect target hits.
system.switch_cpus.branchPred.indirectLookups       619256                       # Number of indirect predictor lookups.
system.switch_cpus.branchPred.indirectMisses       115323                       # Number of indirect misses.
system.switch_cpus.branchPred.lookups          955796                       # Number of BP lookups
system.switch_cpus.branchPred.usedRAS           41516                       # Number of times the RAS was used to get a target.
system.switch_cpus.branchPredindirectMispredicted         2929                       # Number of mispredicted indirect branches.
system.switch_cpus.cc_regfile_reads          14099500                       # number of cc regfile reads
system.switch_cpus.cc_regfile_writes          7124671                       # number of cc regfile writes
system.switch_cpus.commit.amos                      0                       # Number of atomic instructions committed
system.switch_cpus.commit.branchMispredicts        20842                       # The number of times a branch was mispredicted
system.switch_cpus.commit.branches             724275                       # Number of branches committed
system.switch_cpus.commit.bw_lim_events       1280890                       # number cycles where commit BW limit reached
system.switch_cpus.commit.commitSquashedInsts      1261799                       # The number of squashed insts skipped by commit
system.switch_cpus.commit.committedInsts     10000001                       # Number of instructions committed
system.switch_cpus.commit.committedOps       16062736                       # Number of ops (including micro ops) committed
system.switch_cpus.commit.committed_per_cycle::samples      5616481                       # Number of insts commited each cycle
system.switch_cpus.commit.committed_per_cycle::mean     2.859929                       # Number of insts commited each cycle
system.switch_cpus.commit.committed_per_cycle::stdev     3.121349                       # Number of insts commited each cycle
system.switch_cpus.commit.committed_per_cycle::underflows            0      0.00%      0.00% # Number of insts commited each cycle
system.switch_cpus.commit.committed_per_cycle::0      1348543     24.01%     24.01% # Number of insts commited each cycle
system.switch_cpus.commit.committed_per_cycle::1      1881559     33.50%     57.51% # Number of insts commited each cycle
system.switch_cpus.commit.committed_per_cycle::2       424743      7.56%     65.07% # Number of insts commited each cycle
system.switch_cpus.commit.committed_per_cycle::3       200612      3.57%     68.65% # Number of insts commited each cycle
system.switch_cpus.commit.committed_per_cycle::4       148726      2.65%     71.29% # Number of insts commited each cycle
system.switch_cpus.commit.committed_per_cycle::5       146678      2.61%     73.91% # Number of insts commited each cycle
system.switch_cpus.commit.committed_per_cycle::6       138669      2.47%     76.37% # Number of insts commited each cycle
system.switch_cpus.commit.committed_per_cycle::7        46061      0.82%     77.19% # Number of insts commited each cycle
system.switch_cpus.commit.committed_per_cycle::8      1280890     22.81%    100.00% # Number of insts commited each cycle
system.switch_cpus.commit.committed_per_cycle::overflows            0      0.00%    100.00% # Number of insts commited each cycle
system.switch_cpus.commit.committed_per_cycle::min_value            0                       # Number of insts commited each cycle
system.switch_cpus.commit.committed_per_cycle::max_value            8                       # Number of insts commited each cycle
system.switch_cpus.commit.committed_per_cycle::total      5616481                       # Number of insts commited each cycle
system.switch_cpus.commit.fp_insts            1436910                       # Number of committed floating point instructions.
system.switch_cpus.commit.function_calls        32801                       # Number of function calls committed.
system.switch_cpus.commit.int_insts          14834461                       # Number of committed integer instructions.
system.switch_cpus.commit.loads               3595534                       # Number of loads committed
system.switch_cpus.commit.membars                   0                       # Number of memory barriers committed
system.switch_cpus.commit.op_class_0::No_OpClass        95086      0.59%      0.59% # Class of committed instruction
system.switch_cpus.commit.op_class_0::IntAlu      9860253     61.39%     61.98% # Class of committed instruction
system.switch_cpus.commit.op_class_0::IntMult        86584      0.54%     62.52% # Class of committed instruction
system.switch_cpus.commit.op_class_0::IntDiv            0      0.00%     62.52% # Class of committed instruction
system.switch_cpus.commit.op_class_0::FloatAdd        32605      0.20%     62.72% # Class of committed instruction
system.switch_cpus.commit.op_class_0::FloatCmp            0      0.00%     62.72% # Class of committed instruction
system.switch_cpus.commit.op_class_0::FloatCvt            0      0.00%     62.72% # Class of committed instruction
system.switch_cpus.commit.op_class_0::FloatMult            0      0.00%     62.72% # Class of committed instruction
system.switch_cpus.commit.op_class_0::FloatMultAcc            0      0.00%     62.72% # Class of committed instruction
system.switch_cpus.commit.op_class_0::FloatDiv            0      0.00%     62.72% # Class of committed instruction
system.switch_cpus.commit.op_class_0::FloatMisc            0      0.00%     62.72% # Class of committed instruction
system.switch_cpus.commit.op_class_0::FloatSqrt            0      0.00%     62.72% # Class of committed instruction
system.switch_cpus.commit.op_class_0::SimdAdd        20986      0.13%     62.85% # Class of committed instruction
system.switch_cpus.commit.op_class_0::SimdAddAcc            0      0.00%     62.85% # Class of committed instruction
system.switch_cpus.commit.op_class_0::SimdAlu       329262      2.05%     64.90% # Class of committed instruction
system.switch_cpus.commit.op_class_0::SimdCmp            0      0.00%     64.90% # Class of committed instruction
system.switch_cpus.commit.op_class_0::SimdCvt       127366      0.79%     65.69% # Class of committed instruction
system.switch_cpus.commit.op_class_0::SimdMisc       161050      1.00%     66.70% # Class of committed instruction
system.switch_cpus.commit.op_class_0::SimdMult            0      0.00%     66.70% # Class of committed instruction
system.switch_cpus.commit.op_class_0::SimdMultAcc            0      0.00%     66.70% # Class of committed instruction
system.switch_cpus.commit.op_class_0::SimdShift        62958      0.39%     67.09% # Class of committed instruction
system.switch_cpus.commit.op_class_0::SimdShiftAcc            0      0.00%     67.09% # Class of committed instruction
system.switch_cpus.commit.op_class_0::SimdDiv            0      0.00%     67.09% # Class of committed instruction
system.switch_cpus.commit.op_class_0::SimdSqrt            0      0.00%     67.09% # Class of committed instruction
system.switch_cpus.commit.op_class_0::SimdFloatAdd       110449      0.69%     67.78% # Class of committed instruction
system.switch_cpus.commit.op_class_0::SimdFloatAlu            0      0.00%     67.78% # Class of committed instruction
system.switch_cpus.commit.op_class_0::SimdFloatCmp           31      0.00%     67.78% # Class of committed instruction
system.switch_cpus.commit.op_class_0::SimdFloatCvt       154150      0.96%     68.74% # Class of committed instruction
system.switch_cpus.commit.op_class_0::SimdFloatDiv        21677      0.13%     68.87% # Class of committed instruction
system.switch_cpus.commit.op_class_0::SimdFloatMisc            0      0.00%     68.87% # Class of committed instruction
system.switch_cpus.commit.op_class_0::SimdFloatMult        11191      0.07%     68.94% # Class of committed instruction
system.switch_cpus.commit.op_class_0::SimdFloatMultAcc            0      0.00%     68.94% # Class of committed instruction
system.switch_cpus.commit.op_class_0::SimdFloatSqrt            0      0.00%     68.94% # Class of committed instruction
system.switch_cpus.commit.op_class_0::SimdReduceAdd            0      0.00%     68.94% # Class of committed instruction
system.switch_cpus.commit.op_class_0::SimdReduceAlu            0      0.00%     68.94% # Class of committed instruction
system.switch_cpus.commit.op_class_0::SimdReduceCmp            0      0.00%     68.94% # Class of committed instruction
system.switch_cpus.commit.op_class_0::SimdFloatReduceAdd            0      0.00%     68.94% # Class of committed instruction
system.switch_cpus.commit.op_class_0::SimdFloatReduceCmp            0      0.00%     68.94% # Class of committed instruction
system.switch_cpus.commit.op_class_0::SimdAes            0      0.00%     68.94% # Class of committed instruction
system.switch_cpus.commit.op_class_0::SimdAesMix            0      0.00%     68.94% # Class of committed instruction
system.switch_cpus.commit.op_class_0::SimdSha1Hash            0      0.00%     68.94% # Class of committed instruction
system.switch_cpus.commit.op_class_0::SimdSha1Hash2            0      0.00%     68.94% # Class of committed instruction
system.switch_cpus.commit.op_class_0::SimdSha256Hash            0      0.00%     68.94% # Class of committed instruction
system.switch_cpus.commit.op_class_0::SimdSha256Hash2            0      0.00%     68.94% # Class of committed instruction
system.switch_cpus.commit.op_class_0::SimdShaSigma2            0      0.00%     68.94% # Class of committed instruction
system.switch_cpus.commit.op_class_0::SimdShaSigma3            0      0.00%     68.94% # Class of committed instruction
system.switch_cpus.commit.op_class_0::SimdPredAlu            0      0.00%     68.94% # Class of committed instruction
system.switch_cpus.commit.op_class_0::MemRead      3367523     20.96%     89.90% # Class of committed instruction
system.switch_cpus.commit.op_class_0::MemWrite      1393220      8.67%     98.58% # Class of committed instruction
system.switch_cpus.commit.op_class_0::FloatMemRead       228011      1.42%    100.00% # Class of committed instruction
system.switch_cpus.commit.op_class_0::FloatMemWrite          334      0.00%    100.00% # Class of committed instruction
system.switch_cpus.commit.op_class_0::IprAccess            0      0.00%    100.00% # Class of committed instruction
system.switch_cpus.commit.op_class_0::InstPrefetch            0      0.00%    100.00% # Class of committed instruction
system.switch_cpus.commit.op_class_0::total     16062736                       # Class of committed instruction
system.switch_cpus.commit.refs                4989088                       # Number of memory references committed
system.switch_cpus.commit.swp_count                 0                       # Number of s/w prefetches committed
system.switch_cpus.commit.vec_insts                 0                       # Number of committed Vector instructions.
system.switch_cpus.committedInsts            10000001                       # Number of Instructions Simulated
system.switch_cpus.committedOps              16062736                       # Number of Ops (including micro ops) Simulated
system.switch_cpus.cpi                       0.579649                       # CPI: Cycles Per Instruction
system.switch_cpus.cpi_total                 0.579649                       # CPI: Total CPI of All Threads
system.switch_cpus.decode.BlockedCycles       2870556                       # Number of cycles decode is blocked
system.switch_cpus.decode.DecodedInsts       17681594                       # Number of instructions handled by decode
system.switch_cpus.decode.IdleCycles           562568                       # Number of cycles decode is idle
system.switch_cpus.decode.RunCycles           1562239                       # Number of cycles decode is running
system.switch_cpus.decode.SquashCycles          21098                       # Number of cycles decode is squashing
system.switch_cpus.decode.UnblockCycles        769467                       # Number of cycles decode is unblocking
system.switch_cpus.dtb.rdAccesses             3685055                       # TLB accesses on read requests
system.switch_cpus.dtb.rdMisses                    58                       # TLB misses on read requests
system.switch_cpus.dtb.wrAccesses             1407253                       # TLB accesses on write requests
system.switch_cpus.dtb.wrMisses                    73                       # TLB misses on write requests
system.switch_cpus.fetch.Branches              955796                       # Number of branches that fetch encountered
system.switch_cpus.fetch.CacheLines            856654                       # Number of cache lines fetched
system.switch_cpus.fetch.Cycles               4893193                       # Number of cycles fetch has run and was not squashing or blocked
system.switch_cpus.fetch.IcacheSquashes          3981                       # Number of outstanding Icache misses that were squashed
system.switch_cpus.fetch.Insts               10974860                       # Number of instructions fetch has processed
system.switch_cpus.fetch.MiscStallCycles           23                       # Number of cycles fetch has spent waiting on interrupts, or bad addresses, or out of MSHRs
system.switch_cpus.fetch.PendingTrapStallCycles          144                       # Number of stall cycles due to pending traps
system.switch_cpus.fetch.SquashCycles           42196                       # Number of cycles fetch has spent squashing
system.switch_cpus.fetch.branchRate          0.164892                       # Number of branch fetches per cycle
system.switch_cpus.fetch.icacheStallCycles       871475                       # Number of cycles fetch is stalled on an Icache miss
system.switch_cpus.fetch.predictedBranches       545449                       # Number of branches that fetch has predicted taken
system.switch_cpus.fetch.rate                1.893364                       # Number of inst fetches per cycle
system.switch_cpus.fetch.rateDist::samples      5785933                       # Number of instructions fetched each cycle (Total)
system.switch_cpus.fetch.rateDist::mean      3.098395                       # Number of instructions fetched each cycle (Total)
system.switch_cpus.fetch.rateDist::stdev     3.527854                       # Number of instructions fetched each cycle (Total)
system.switch_cpus.fetch.rateDist::underflows            0      0.00%      0.00% # Number of instructions fetched each cycle (Total)
system.switch_cpus.fetch.rateDist::0          2969498     51.32%     51.32% # Number of instructions fetched each cycle (Total)
system.switch_cpus.fetch.rateDist::1           137377      2.37%     53.70% # Number of instructions fetched each cycle (Total)
system.switch_cpus.fetch.rateDist::2           102297      1.77%     55.47% # Number of instructions fetched each cycle (Total)
system.switch_cpus.fetch.rateDist::3           148067      2.56%     58.02% # Number of instructions fetched each cycle (Total)
system.switch_cpus.fetch.rateDist::4           179515      3.10%     61.13% # Number of instructions fetched each cycle (Total)
system.switch_cpus.fetch.rateDist::5           345617      5.97%     67.10% # Number of instructions fetched each cycle (Total)
system.switch_cpus.fetch.rateDist::6           170685      2.95%     70.05% # Number of instructions fetched each cycle (Total)
system.switch_cpus.fetch.rateDist::7           192340      3.32%     73.37% # Number of instructions fetched each cycle (Total)
system.switch_cpus.fetch.rateDist::8          1540537     26.63%    100.00% # Number of instructions fetched each cycle (Total)
system.switch_cpus.fetch.rateDist::overflows            0      0.00%    100.00% # Number of instructions fetched each cycle (Total)
system.switch_cpus.fetch.rateDist::min_value            0                       # Number of instructions fetched each cycle (Total)
system.switch_cpus.fetch.rateDist::max_value            8                       # Number of instructions fetched each cycle (Total)
system.switch_cpus.fetch.rateDist::total      5785933                       # Number of instructions fetched each cycle (Total)
system.switch_cpus.fp_regfile_reads           2768450                       # number of floating regfile reads
system.switch_cpus.fp_regfile_writes          1378625                       # number of floating regfile writes
system.switch_cpus.idleCycles                   10553                       # Total number of cycles that the CPU has spent unscheduled due to idling
system.switch_cpus.iew.branchMispredicts        34748                       # Number of branch mispredicts detected at execute
system.switch_cpus.iew.exec_branches           789983                       # Number of branches executed
system.switch_cpus.iew.exec_nop                     0                       # number of nop insts executed
system.switch_cpus.iew.exec_rate             2.900081                       # Inst execution rate
system.switch_cpus.iew.exec_refs              5087149                       # number of memory reference insts executed
system.switch_cpus.iew.exec_stores            1407253                       # Number of stores executed
system.switch_cpus.iew.exec_swp                     0                       # number of swp insts executed
system.switch_cpus.iew.iewBlockCycles          158747                       # Number of cycles IEW is blocking
system.switch_cpus.iew.iewDispLoadInsts       3713189                       # Number of dispatched load instructions
system.switch_cpus.iew.iewDispNonSpecInsts            1                       # Number of dispatched non-speculative instructions
system.switch_cpus.iew.iewDispSquashedInsts          686                       # Number of squashed instructions skipped by dispatch
system.switch_cpus.iew.iewDispStoreInsts      1424751                       # Number of dispatched store instructions
system.switch_cpus.iew.iewDispatchedInsts     17324592                       # Number of instructions dispatched to IQ
system.switch_cpus.iew.iewExecLoadInsts       3679896                       # Number of load instructions executed
system.switch_cpus.iew.iewExecSquashedInsts        34874                       # Number of squashed instructions skipped in execute
system.switch_cpus.iew.iewExecutedInsts      16810279                       # Number of executed instructions
system.switch_cpus.iew.iewIQFullEvents            289                       # Number of times the IQ has become full, causing a stall
system.switch_cpus.iew.iewIdleCycles                0                       # Number of cycles IEW is idle
system.switch_cpus.iew.iewLSQFullEvents        124730                       # Number of times the LSQ has become full, causing a stall
system.switch_cpus.iew.iewSquashCycles          21098                       # Number of cycles IEW is squashing
system.switch_cpus.iew.iewUnblockCycles        125109                       # Number of cycles IEW is unblocking
system.switch_cpus.iew.lsq.thread0.blockedLoads            0                       # Number of blocked loads due to partial load-store forwarding
system.switch_cpus.iew.lsq.thread0.cacheBlocked          261                       # Number of times an access to memory failed due to the cache being blocked
system.switch_cpus.iew.lsq.thread0.forwLoads       378626                       # Number of loads that had data forwarded from stores
system.switch_cpus.iew.lsq.thread0.ignoredResponses           74                       # Number of memory responses ignored because the instruction is squashed
system.switch_cpus.iew.lsq.thread0.invAddrLoads            0                       # Number of loads ignored due to an invalid address
system.switch_cpus.iew.lsq.thread0.invAddrSwpfs            0                       # Number of software prefetches ignored due to an invalid address
system.switch_cpus.iew.lsq.thread0.memOrderViolation          291                       # Number of memory ordering violations
system.switch_cpus.iew.lsq.thread0.rescheduledLoads            0                       # Number of loads that were rescheduled
system.switch_cpus.iew.lsq.thread0.squashedLoads       117632                       # Number of loads squashed
system.switch_cpus.iew.lsq.thread0.squashedStores        31188                       # Number of stores squashed
system.switch_cpus.iew.memOrderViolationEvents          291                       # Number of memory order violations
system.switch_cpus.iew.predictedNotTakenIncorrect        29291                       # Number of branches that were predicted not taken incorrectly
system.switch_cpus.iew.predictedTakenIncorrect         5457                       # Number of branches that were predicted taken incorrectly
system.switch_cpus.iew.wb_consumers          27004009                       # num instructions consuming a value
system.switch_cpus.iew.wb_count              16792024                       # cumulative count of insts written-back
system.switch_cpus.iew.wb_fanout             0.498431                       # average fanout of values written-back
system.switch_cpus.iew.wb_producers          13459631                       # num instructions producing a value
system.switch_cpus.iew.wb_rate               2.896932                       # insts written-back per cycle
system.switch_cpus.iew.wb_sent               16799167                       # cumulative count of insts sent to commit
system.switch_cpus.int_regfile_reads         29036045                       # number of integer regfile reads
system.switch_cpus.int_regfile_writes        13112978                       # number of integer regfile writes
system.switch_cpus.ipc                       1.725183                       # IPC: Instructions Per Cycle
system.switch_cpus.ipc_total                 1.725183                       # IPC: Total IPC of All Threads
system.switch_cpus.iq.FU_type_0::No_OpClass       100306      0.60%      0.60% # Type of FU issued
system.switch_cpus.iq.FU_type_0::IntAlu      10443958     62.00%     62.60% # Type of FU issued
system.switch_cpus.iq.FU_type_0::IntMult        88216      0.52%     63.12% # Type of FU issued
system.switch_cpus.iq.FU_type_0::IntDiv             0      0.00%     63.12% # Type of FU issued
system.switch_cpus.iq.FU_type_0::FloatAdd        35231      0.21%     63.33% # Type of FU issued
system.switch_cpus.iq.FU_type_0::FloatCmp            0      0.00%     63.33% # Type of FU issued
system.switch_cpus.iq.FU_type_0::FloatCvt            0      0.00%     63.33% # Type of FU issued
system.switch_cpus.iq.FU_type_0::FloatMult            0      0.00%     63.33% # Type of FU issued
system.switch_cpus.iq.FU_type_0::FloatMultAcc            0      0.00%     63.33% # Type of FU issued
system.switch_cpus.iq.FU_type_0::FloatDiv            0      0.00%     63.33% # Type of FU issued
system.switch_cpus.iq.FU_type_0::FloatMisc            0      0.00%     63.33% # Type of FU issued
system.switch_cpus.iq.FU_type_0::FloatSqrt            0      0.00%     63.33% # Type of FU issued
system.switch_cpus.iq.FU_type_0::SimdAdd        20986      0.12%     63.45% # Type of FU issued
system.switch_cpus.iq.FU_type_0::SimdAddAcc            0      0.00%     63.45% # Type of FU issued
system.switch_cpus.iq.FU_type_0::SimdAlu       343405      2.04%     65.49% # Type of FU issued
system.switch_cpus.iq.FU_type_0::SimdCmp            0      0.00%     65.49% # Type of FU issued
system.switch_cpus.iq.FU_type_0::SimdCvt       129877      0.77%     66.26% # Type of FU issued
system.switch_cpus.iq.FU_type_0::SimdMisc       163138      0.97%     67.23% # Type of FU issued
system.switch_cpus.iq.FU_type_0::SimdMult            0      0.00%     67.23% # Type of FU issued
system.switch_cpus.iq.FU_type_0::SimdMultAcc            0      0.00%     67.23% # Type of FU issued
system.switch_cpus.iq.FU_type_0::SimdShift        63049      0.37%     67.60% # Type of FU issued
system.switch_cpus.iq.FU_type_0::SimdShiftAcc            0      0.00%     67.60% # Type of FU issued
system.switch_cpus.iq.FU_type_0::SimdDiv            0      0.00%     67.60% # Type of FU issued
system.switch_cpus.iq.FU_type_0::SimdSqrt            0      0.00%     67.60% # Type of FU issued
system.switch_cpus.iq.FU_type_0::SimdFloatAdd       142101      0.84%     68.45% # Type of FU issued
system.switch_cpus.iq.FU_type_0::SimdFloatAlu            0      0.00%     68.45% # Type of FU issued
system.switch_cpus.iq.FU_type_0::SimdFloatCmp           61      0.00%     68.45% # Type of FU issued
system.switch_cpus.iq.FU_type_0::SimdFloatCvt       180192      1.07%     69.52% # Type of FU issued
system.switch_cpus.iq.FU_type_0::SimdFloatDiv        23624      0.14%     69.66% # Type of FU issued
system.switch_cpus.iq.FU_type_0::SimdFloatMisc            0      0.00%     69.66% # Type of FU issued
system.switch_cpus.iq.FU_type_0::SimdFloatMult        13205      0.08%     69.74% # Type of FU issued
system.switch_cpus.iq.FU_type_0::SimdFloatMultAcc            0      0.00%     69.74% # Type of FU issued
system.switch_cpus.iq.FU_type_0::SimdFloatSqrt            0      0.00%     69.74% # Type of FU issued
system.switch_cpus.iq.FU_type_0::SimdReduceAdd            0      0.00%     69.74% # Type of FU issued
system.switch_cpus.iq.FU_type_0::SimdReduceAlu            0      0.00%     69.74% # Type of FU issued
system.switch_cpus.iq.FU_type_0::SimdReduceCmp            0      0.00%     69.74% # Type of FU issued
system.switch_cpus.iq.FU_type_0::SimdFloatReduceAdd            0      0.00%     69.74% # Type of FU issued
system.switch_cpus.iq.FU_type_0::SimdFloatReduceCmp            0      0.00%     69.74% # Type of FU issued
system.switch_cpus.iq.FU_type_0::SimdAes            0      0.00%     69.74% # Type of FU issued
system.switch_cpus.iq.FU_type_0::SimdAesMix            0      0.00%     69.74% # Type of FU issued
system.switch_cpus.iq.FU_type_0::SimdSha1Hash            0      0.00%     69.74% # Type of FU issued
system.switch_cpus.iq.FU_type_0::SimdSha1Hash2            0      0.00%     69.74% # Type of FU issued
system.switch_cpus.iq.FU_type_0::SimdSha256Hash            0      0.00%     69.74% # Type of FU issued
system.switch_cpus.iq.FU_type_0::SimdSha256Hash2            0      0.00%     69.74% # Type of FU issued
system.switch_cpus.iq.FU_type_0::SimdShaSigma2            0      0.00%     69.74% # Type of FU issued
system.switch_cpus.iq.FU_type_0::SimdShaSigma3            0      0.00%     69.74% # Type of FU issued
system.switch_cpus.iq.FU_type_0::SimdPredAlu            0      0.00%     69.74% # Type of FU issued
system.switch_cpus.iq.FU_type_0::MemRead      3404680     20.21%     89.95% # Type of FU issued
system.switch_cpus.iq.FU_type_0::MemWrite      1408916      8.36%     98.31% # Type of FU issued
system.switch_cpus.iq.FU_type_0::FloatMemRead       283752      1.68%    100.00% # Type of FU issued
system.switch_cpus.iq.FU_type_0::FloatMemWrite          460      0.00%    100.00% # Type of FU issued
system.switch_cpus.iq.FU_type_0::IprAccess            0      0.00%    100.00% # Type of FU issued
system.switch_cpus.iq.FU_type_0::InstPrefetch            0      0.00%    100.00% # Type of FU issued
system.switch_cpus.iq.FU_type_0::total       16845157                       # Type of FU issued
system.switch_cpus.iq.fp_alu_accesses         1596776                       # Number of floating point alu accesses
system.switch_cpus.iq.fp_inst_queue_reads      3175206                       # Number of floating instruction queue reads
system.switch_cpus.iq.fp_inst_queue_wakeup_accesses      1560434                       # Number of floating instruction queue wakeup accesses
system.switch_cpus.iq.fp_inst_queue_writes      1915278                       # Number of floating instruction queue writes
system.switch_cpus.iq.fu_busy_cnt              189665                       # FU busy when requested
system.switch_cpus.iq.fu_busy_rate           0.011259                       # FU busy rate (busy events/executed inst)
system.switch_cpus.iq.fu_full::No_OpClass            0      0.00%      0.00% # attempts to use FU when none available
system.switch_cpus.iq.fu_full::IntAlu          116349     61.34%     61.34% # attempts to use FU when none available
system.switch_cpus.iq.fu_full::IntMult              0      0.00%     61.34% # attempts to use FU when none available
system.switch_cpus.iq.fu_full::IntDiv               0      0.00%     61.34% # attempts to use FU when none available
system.switch_cpus.iq.fu_full::FloatAdd             0      0.00%     61.34% # attempts to use FU when none available
system.switch_cpus.iq.fu_full::FloatCmp             0      0.00%     61.34% # attempts to use FU when none available
system.switch_cpus.iq.fu_full::FloatCvt             0      0.00%     61.34% # attempts to use FU when none available
system.switch_cpus.iq.fu_full::FloatMult            0      0.00%     61.34% # attempts to use FU when none available
system.switch_cpus.iq.fu_full::FloatMultAcc            0      0.00%     61.34% # attempts to use FU when none available
system.switch_cpus.iq.fu_full::FloatDiv             0      0.00%     61.34% # attempts to use FU when none available
system.switch_cpus.iq.fu_full::FloatMisc            0      0.00%     61.34% # attempts to use FU when none available
system.switch_cpus.iq.fu_full::FloatSqrt            0      0.00%     61.34% # attempts to use FU when none available
system.switch_cpus.iq.fu_full::SimdAdd              0      0.00%     61.34% # attempts to use FU when none available
system.switch_cpus.iq.fu_full::SimdAddAcc            0      0.00%     61.34% # attempts to use FU when none available
system.switch_cpus.iq.fu_full::SimdAlu            128      0.07%     61.41% # attempts to use FU when none available
system.switch_cpus.iq.fu_full::SimdCmp              0      0.00%     61.41% # attempts to use FU when none available
system.switch_cpus.iq.fu_full::SimdCvt           3403      1.79%     63.21% # attempts to use FU when none available
system.switch_cpus.iq.fu_full::SimdMisc            22      0.01%     63.22% # attempts to use FU when none available
system.switch_cpus.iq.fu_full::SimdMult             0      0.00%     63.22% # attempts to use FU when none available
system.switch_cpus.iq.fu_full::SimdMultAcc            0      0.00%     63.22% # attempts to use FU when none available
system.switch_cpus.iq.fu_full::SimdShift            3      0.00%     63.22% # attempts to use FU when none available
system.switch_cpus.iq.fu_full::SimdShiftAcc            0      0.00%     63.22% # attempts to use FU when none available
system.switch_cpus.iq.fu_full::SimdDiv              0      0.00%     63.22% # attempts to use FU when none available
system.switch_cpus.iq.fu_full::SimdSqrt             0      0.00%     63.22% # attempts to use FU when none available
system.switch_cpus.iq.fu_full::SimdFloatAdd         1846      0.97%     64.19% # attempts to use FU when none available
system.switch_cpus.iq.fu_full::SimdFloatAlu            0      0.00%     64.19% # attempts to use FU when none available
system.switch_cpus.iq.fu_full::SimdFloatCmp            0      0.00%     64.19% # attempts to use FU when none available
system.switch_cpus.iq.fu_full::SimdFloatCvt        10073      5.31%     69.50% # attempts to use FU when none available
system.switch_cpus.iq.fu_full::SimdFloatDiv            0      0.00%     69.50% # attempts to use FU when none available
system.switch_cpus.iq.fu_full::SimdFloatMisc            0      0.00%     69.50% # attempts to use FU when none available
system.switch_cpus.iq.fu_full::SimdFloatMult            0      0.00%     69.50% # attempts to use FU when none available
system.switch_cpus.iq.fu_full::SimdFloatMultAcc            0      0.00%     69.50% # attempts to use FU when none available
system.switch_cpus.iq.fu_full::SimdFloatSqrt            0      0.00%     69.50% # attempts to use FU when none available
system.switch_cpus.iq.fu_full::SimdReduceAdd            0      0.00%     69.50% # attempts to use FU when none available
system.switch_cpus.iq.fu_full::SimdReduceAlu            0      0.00%     69.50% # attempts to use FU when none available
system.switch_cpus.iq.fu_full::SimdReduceCmp            0      0.00%     69.50% # attempts to use FU when none available
system.switch_cpus.iq.fu_full::SimdFloatReduceAdd            0      0.00%     69.50% # attempts to use FU when none available
system.switch_cpus.iq.fu_full::SimdFloatReduceCmp            0      0.00%     69.50% # attempts to use FU when none available
system.switch_cpus.iq.fu_full::SimdAes              0      0.00%     69.50% # attempts to use FU when none available
system.switch_cpus.iq.fu_full::SimdAesMix            0      0.00%     69.50% # attempts to use FU when none available
system.switch_cpus.iq.fu_full::SimdSha1Hash            0      0.00%     69.50% # attempts to use FU when none available
system.switch_cpus.iq.fu_full::SimdSha1Hash2            0      0.00%     69.50% # attempts to use FU when none available
system.switch_cpus.iq.fu_full::SimdSha256Hash            0      0.00%     69.50% # attempts to use FU when none available
system.switch_cpus.iq.fu_full::SimdSha256Hash2            0      0.00%     69.50% # attempts to use FU when none available
system.switch_cpus.iq.fu_full::SimdShaSigma2            0      0.00%     69.50% # attempts to use FU when none available
system.switch_cpus.iq.fu_full::SimdShaSigma3            0      0.00%     69.50% # attempts to use FU when none available
system.switch_cpus.iq.fu_full::SimdPredAlu            0      0.00%     69.50% # attempts to use FU when none available
system.switch_cpus.iq.fu_full::MemRead          53651     28.29%     97.79% # attempts to use FU when none available
system.switch_cpus.iq.fu_full::MemWrite           661      0.35%     98.14% # attempts to use FU when none available
system.switch_cpus.iq.fu_full::FloatMemRead         3529      1.86%    100.00% # attempts to use FU when none available
system.switch_cpus.iq.fu_full::FloatMemWrite            0      0.00%    100.00% # attempts to use FU when none available
system.switch_cpus.iq.fu_full::IprAccess            0      0.00%    100.00% # attempts to use FU when none available
system.switch_cpus.iq.fu_full::InstPrefetch            0      0.00%    100.00% # attempts to use FU when none available
system.switch_cpus.iq.int_alu_accesses       15337740                       # Number of integer alu accesses
system.switch_cpus.iq.int_inst_queue_reads     36567871                       # Number of integer instruction queue reads
system.switch_cpus.iq.int_inst_queue_wakeup_accesses     15231590                       # Number of integer instruction queue wakeup accesses
system.switch_cpus.iq.int_inst_queue_writes     16671380                       # Number of integer instruction queue writes
system.switch_cpus.iq.iqInstsAdded           17324583                       # Number of instructions added to the IQ (excludes non-spec)
system.switch_cpus.iq.iqInstsIssued          16845157                       # Number of instructions issued
system.switch_cpus.iq.iqNonSpecInstsAdded            9                       # Number of non-speculative instructions added to the IQ
system.switch_cpus.iq.iqSquashedInstsExamined      1261778                       # Number of squashed instructions iterated over during squash; mainly for profiling
system.switch_cpus.iq.iqSquashedInstsIssued        77169                       # Number of squashed instructions issued
system.switch_cpus.iq.iqSquashedNonSpecRemoved            9                       # Number of squashed non-spec instructions that were removed
system.switch_cpus.iq.iqSquashedOperandsExamined      1788611                       # Number of squashed operands that are examined and possibly removed from graph
system.switch_cpus.iq.issued_per_cycle::samples      5785933                       # Number of insts issued each cycle
system.switch_cpus.iq.issued_per_cycle::mean     2.911399                       # Number of insts issued each cycle
system.switch_cpus.iq.issued_per_cycle::stdev     2.323287                       # Number of insts issued each cycle
system.switch_cpus.iq.issued_per_cycle::underflows            0      0.00%      0.00% # Number of insts issued each cycle
system.switch_cpus.iq.issued_per_cycle::0      1215306     21.00%     21.00% # Number of insts issued each cycle
system.switch_cpus.iq.issued_per_cycle::1       637350     11.02%     32.02% # Number of insts issued each cycle
system.switch_cpus.iq.issued_per_cycle::2       896640     15.50%     47.52% # Number of insts issued each cycle
system.switch_cpus.iq.issued_per_cycle::3       842979     14.57%     62.09% # Number of insts issued each cycle
system.switch_cpus.iq.issued_per_cycle::4       720880     12.46%     74.55% # Number of insts issued each cycle
system.switch_cpus.iq.issued_per_cycle::5       616296     10.65%     85.20% # Number of insts issued each cycle
system.switch_cpus.iq.issued_per_cycle::6       337713      5.84%     91.03% # Number of insts issued each cycle
system.switch_cpus.iq.issued_per_cycle::7       255840      4.42%     95.46% # Number of insts issued each cycle
system.switch_cpus.iq.issued_per_cycle::8       262929      4.54%    100.00% # Number of insts issued each cycle
system.switch_cpus.iq.issued_per_cycle::overflows            0      0.00%    100.00% # Number of insts issued each cycle
system.switch_cpus.iq.issued_per_cycle::min_value            0                       # Number of insts issued each cycle
system.switch_cpus.iq.issued_per_cycle::max_value            8                       # Number of insts issued each cycle
system.switch_cpus.iq.issued_per_cycle::total      5785933                       # Number of insts issued each cycle
system.switch_cpus.iq.rate                   2.906098                       # Inst issue rate
system.switch_cpus.iq.vec_alu_accesses              0                       # Number of vector alu accesses
system.switch_cpus.iq.vec_inst_queue_reads            0                       # Number of vector instruction queue reads
system.switch_cpus.iq.vec_inst_queue_wakeup_accesses            0                       # Number of vector instruction queue wakeup accesses
system.switch_cpus.iq.vec_inst_queue_writes            0                       # Number of vector instruction queue writes
system.switch_cpus.itb.rdAccesses                   0                       # TLB accesses on read requests
system.switch_cpus.itb.rdMisses                     0                       # TLB misses on read requests
system.switch_cpus.itb.wrAccesses              856678                       # TLB accesses on write requests
system.switch_cpus.itb.wrMisses                    41                       # TLB misses on write requests
system.switch_cpus.memDep0.conflictingLoads       380779                       # Number of conflicting loads.
system.switch_cpus.memDep0.conflictingStores       328778                       # Number of conflicting stores.
system.switch_cpus.memDep0.insertedLoads      3713189                       # Number of loads inserted to the mem dependence unit.
system.switch_cpus.memDep0.insertedStores      1424751                       # Number of stores inserted to the mem dependence unit.
system.switch_cpus.misc_regfile_reads         6739984                       # number of misc regfile reads
system.switch_cpus.misc_regfile_writes              1                       # number of misc regfile writes
system.switch_cpus.numCycles                  5796486                       # number of cpu cycles simulated
system.switch_cpus.numWorkItemsCompleted            0                       # number of work items this cpu completed
system.switch_cpus.numWorkItemsStarted              0                       # number of work items this cpu started
system.switch_cpus.rename.BlockCycles          350012                       # Number of cycles rename is blocking
system.switch_cpus.rename.CommittedMaps      20752203                       # Number of HB maps that are committed
system.switch_cpus.rename.IQFullEvents         159833                       # Number of times rename has blocked due to IQ full
system.switch_cpus.rename.IdleCycles           872062                       # Number of cycles rename is idle
system.switch_cpus.rename.LQFullEvents         614996                       # Number of times rename has blocked due to LQ full
system.switch_cpus.rename.ROBFullEvents          2438                       # Number of times rename has blocked due to ROB full
system.switch_cpus.rename.RenameLookups      55024772                       # Number of register rename lookups that rename has made
system.switch_cpus.rename.RenamedInsts       17561886                       # Number of instructions processed by rename
system.switch_cpus.rename.RenamedOperands     22532817                       # Number of destination operands rename has renamed
system.switch_cpus.rename.RunCycles           2010827                       # Number of cycles rename is running
system.switch_cpus.rename.SQFullEvents        1514536                       # Number of times rename has blocked due to SQ full
system.switch_cpus.rename.SquashCycles          21098                       # Number of cycles rename is squashing
system.switch_cpus.rename.UnblockCycles       2531929                       # Number of cycles rename is unblocking
system.switch_cpus.rename.UndoneMaps          1780495                       # Number of HB maps that are undone due to squashing
system.switch_cpus.rename.fp_rename_lookups      3039938                       # Number of floating rename lookups
system.switch_cpus.rename.int_rename_lookups     30069609                       # Number of integer rename lookups
system.switch_cpus.rename.serializeStallCycles            0                       # count of cycles rename stalled for serializing inst
system.switch_cpus.rename.serializingInsts            0                       # count of serializing insts renamed
system.switch_cpus.rename.skidInsts           4068260                       # count of insts added to the skid buffer
system.switch_cpus.rename.tempSerializingInsts            0                       # count of temporary serializing insts renamed
system.switch_cpus.rob.rob_reads             21660126                       # The number of ROB reads
system.switch_cpus.rob.rob_writes            34819260                       # The number of ROB writes
system.switch_cpus.timesIdled                     174                       # Number of times that the entire CPU went into an idle state and unscheduled itself
system.tol2bus.snoop_filter.hit_multi_requests            0                       # Number of requests hitting in the snoop filter with multiple (>1) holders of the requested data.
system.tol2bus.snoop_filter.hit_multi_snoops            0                       # Number of snoops hitting in the snoop filter with multiple (>1) holders of the requested data.
system.tol2bus.snoop_filter.hit_single_requests        24551                       # Number of requests hitting in the snoop filter with a single holder of the requested data.
system.tol2bus.snoop_filter.hit_single_snoops         8785                       # Number of snoops hitting in the snoop filter with a single holder of the requested data.
system.tol2bus.snoop_filter.tot_requests        50254                       # Total number of requests made to the snoop filter.
system.tol2bus.snoop_filter.tot_snoops           8785                       # Total number of snoops made to the snoop filter.
system.membus.pwrStateResidencyTicks::UNDEFINED 120508338329500                       # Cumulative time (in ticks) in various power states
system.membus.trans_dist::ReadResp               2632                       # Transaction distribution
system.membus.trans_dist::WritebackDirty         3543                       # Transaction distribution
system.membus.trans_dist::CleanEvict             2028                       # Transaction distribution
system.membus.trans_dist::ReadExReq              4948                       # Transaction distribution
system.membus.trans_dist::ReadExResp             4948                       # Transaction distribution
system.membus.trans_dist::ReadSharedReq          2632                       # Transaction distribution
system.membus.pkt_count_system.l2.mem_side::system.mem_ctrls.port        20731                       # Packet count per connected master and slave (bytes)
system.membus.pkt_count_system.l2.mem_side::total        20731                       # Packet count per connected master and slave (bytes)
system.membus.pkt_count::total                  20731                       # Packet count per connected master and slave (bytes)
system.membus.pkt_size_system.l2.mem_side::system.mem_ctrls.port       711872                       # Cumulative packet size per connected master and slave (bytes)
system.membus.pkt_size_system.l2.mem_side::total       711872                       # Cumulative packet size per connected master and slave (bytes)
system.membus.pkt_size::total                  711872                       # Cumulative packet size per connected master and slave (bytes)
system.membus.snoops                                0                       # Total snoops (count)
system.membus.snoopTraffic                          0                       # Total snoop traffic (bytes)
system.membus.snoop_fanout::samples              7580                       # Request fanout histogram
system.membus.snoop_fanout::mean                    0                       # Request fanout histogram
system.membus.snoop_fanout::stdev                   0                       # Request fanout histogram
system.membus.snoop_fanout::underflows              0      0.00%      0.00% # Request fanout histogram
system.membus.snoop_fanout::0                    7580    100.00%    100.00% # Request fanout histogram
system.membus.snoop_fanout::1                       0      0.00%    100.00% # Request fanout histogram
system.membus.snoop_fanout::overflows               0      0.00%    100.00% # Request fanout histogram
system.membus.snoop_fanout::min_value               0                       # Request fanout histogram
system.membus.snoop_fanout::max_value               0                       # Request fanout histogram
system.membus.snoop_fanout::total                7580                       # Request fanout histogram
system.membus.reqLayer2.occupancy            29862500                       # Layer occupancy (ticks)
system.membus.reqLayer2.utilization               1.0                       # Layer utilization (%)
system.membus.respLayer1.occupancy           40270250                       # Layer occupancy (ticks)
system.membus.respLayer1.utilization              1.4                       # Layer utilization (%)
system.switch_cpus.pwrStateResidencyTicks::OFF   2898253250                       # Cumulative time (in ticks) in various power states
system.switch_cpus.dtb.walker.pwrStateResidencyTicks::UNDEFINED 120508338329500                       # Cumulative time (in ticks) in various power states
system.switch_cpus.itb.walker.pwrStateResidencyTicks::UNDEFINED 120508338329500                       # Cumulative time (in ticks) in various power states
system.tol2bus.pwrStateResidencyTicks::UNDEFINED 120508338329500                       # Cumulative time (in ticks) in various power states
system.tol2bus.trans_dist::ReadResp              6501                       # Transaction distribution
system.tol2bus.trans_dist::WritebackDirty        22493                       # Transaction distribution
system.tol2bus.trans_dist::WritebackClean          264                       # Transaction distribution
system.tol2bus.trans_dist::CleanEvict           14297                       # Transaction distribution
system.tol2bus.trans_dist::ReadExReq            19202                       # Transaction distribution
system.tol2bus.trans_dist::ReadExResp           19202                       # Transaction distribution
system.tol2bus.trans_dist::ReadCleanReq           392                       # Transaction distribution
system.tol2bus.trans_dist::ReadSharedReq         6109                       # Transaction distribution
system.tol2bus.pkt_count_system.cpu.icache.mem_side::system.l2.cpu_side         1048                       # Packet count per connected master and slave (bytes)
system.tol2bus.pkt_count_system.cpu.dcache.mem_side::system.l2.cpu_side        74909                       # Packet count per connected master and slave (bytes)
system.tol2bus.pkt_count::total                 75957                       # Packet count per connected master and slave (bytes)
system.tol2bus.pkt_size_system.cpu.icache.mem_side::system.l2.cpu_side        41984                       # Cumulative packet size per connected master and slave (bytes)
system.tol2bus.pkt_size_system.cpu.dcache.mem_side::system.l2.cpu_side      2832704                       # Cumulative packet size per connected master and slave (bytes)
system.tol2bus.pkt_size::total                2874688                       # Cumulative packet size per connected master and slave (bytes)
system.tol2bus.snoops                           12503                       # Total snoops (count)
system.tol2bus.snoopTraffic                    226752                       # Total snoop traffic (bytes)
system.tol2bus.snoop_fanout::samples            38206                       # Request fanout histogram
system.tol2bus.snoop_fanout::mean            0.229938                       # Request fanout histogram
system.tol2bus.snoop_fanout::stdev           0.420798                       # Request fanout histogram
system.tol2bus.snoop_fanout::underflows             0      0.00%      0.00% # Request fanout histogram
system.tol2bus.snoop_fanout::0                  29421     77.01%     77.01% # Request fanout histogram
system.tol2bus.snoop_fanout::1                   8785     22.99%    100.00% # Request fanout histogram
system.tol2bus.snoop_fanout::2                      0      0.00%    100.00% # Request fanout histogram
system.tol2bus.snoop_fanout::3                      0      0.00%    100.00% # Request fanout histogram
system.tol2bus.snoop_fanout::4                      0      0.00%    100.00% # Request fanout histogram
system.tol2bus.snoop_fanout::overflows              0      0.00%    100.00% # Request fanout histogram
system.tol2bus.snoop_fanout::min_value              0                       # Request fanout histogram
system.tol2bus.snoop_fanout::max_value              1                       # Request fanout histogram
system.tol2bus.snoop_fanout::total              38206                       # Request fanout histogram
system.tol2bus.reqLayer0.occupancy           44337000                       # Layer occupancy (ticks)
system.tol2bus.reqLayer0.utilization              1.5                       # Layer utilization (%)
system.tol2bus.respLayer1.occupancy          37958997                       # Layer occupancy (ticks)
system.tol2bus.respLayer1.utilization             1.3                       # Layer utilization (%)
system.tol2bus.respLayer0.occupancy            585499                       # Layer occupancy (ticks)
system.tol2bus.respLayer0.utilization             0.0                       # Layer utilization (%)
system.voltage_domain.voltage                       1                       # Voltage in Volts
system.clk_domain.clock                          1000                       # Clock period in ticks
system.l2.pwrStateResidencyTicks::UNDEFINED 120508338329500                       # Cumulative time (in ticks) in various power states
system.l2.demand_hits::.switch_cpus.inst          249                       # number of demand (read+write) hits
system.l2.demand_hits::.switch_cpus.data        17874                       # number of demand (read+write) hits
system.l2.demand_hits::total                    18123                       # number of demand (read+write) hits
system.l2.overall_hits::.switch_cpus.inst          249                       # number of overall hits
system.l2.overall_hits::.switch_cpus.data        17874                       # number of overall hits
system.l2.overall_hits::total                   18123                       # number of overall hits
system.l2.demand_misses::.cpu.inst                  2                       # number of demand (read+write) misses
system.l2.demand_misses::.cpu.data                  6                       # number of demand (read+write) misses
system.l2.demand_misses::.switch_cpus.inst          141                       # number of demand (read+write) misses
system.l2.demand_misses::.switch_cpus.data         7431                       # number of demand (read+write) misses
system.l2.demand_misses::total                   7580                       # number of demand (read+write) misses
system.l2.overall_misses::.cpu.inst                 2                       # number of overall misses
system.l2.overall_misses::.cpu.data                 6                       # number of overall misses
system.l2.overall_misses::.switch_cpus.inst          141                       # number of overall misses
system.l2.overall_misses::.switch_cpus.data         7431                       # number of overall misses
system.l2.overall_misses::total                  7580                       # number of overall misses
system.l2.demand_miss_latency::.switch_cpus.inst     11457000                       # number of demand (read+write) miss cycles
system.l2.demand_miss_latency::.switch_cpus.data    587813500                       # number of demand (read+write) miss cycles
system.l2.demand_miss_latency::total        599270500                       # number of demand (read+write) miss cycles
system.l2.overall_miss_latency::.switch_cpus.inst     11457000                       # number of overall miss cycles
system.l2.overall_miss_latency::.switch_cpus.data    587813500                       # number of overall miss cycles
system.l2.overall_miss_latency::total       599270500                       # number of overall miss cycles
system.l2.demand_accesses::.cpu.inst                2                       # number of demand (read+write) accesses
system.l2.demand_accesses::.cpu.data                6                       # number of demand (read+write) accesses
system.l2.demand_accesses::.switch_cpus.inst          390                       # number of demand (read+write) accesses
system.l2.demand_accesses::.switch_cpus.data        25305                       # number of demand (read+write) accesses
system.l2.demand_accesses::total                25703                       # number of demand (read+write) accesses
system.l2.overall_accesses::.cpu.inst               2                       # number of overall (read+write) accesses
system.l2.overall_accesses::.cpu.data               6                       # number of overall (read+write) accesses
system.l2.overall_accesses::.switch_cpus.inst          390                       # number of overall (read+write) accesses
system.l2.overall_accesses::.switch_cpus.data        25305                       # number of overall (read+write) accesses
system.l2.overall_accesses::total               25703                       # number of overall (read+write) accesses
system.l2.demand_miss_rate::.cpu.inst               1                       # miss rate for demand accesses
system.l2.demand_miss_rate::.cpu.data               1                       # miss rate for demand accesses
system.l2.demand_miss_rate::.switch_cpus.inst     0.361538                       # miss rate for demand accesses
system.l2.demand_miss_rate::.switch_cpus.data     0.293657                       # miss rate for demand accesses
system.l2.demand_miss_rate::total            0.294907                       # miss rate for demand accesses
system.l2.overall_miss_rate::.cpu.inst              1                       # miss rate for overall accesses
system.l2.overall_miss_rate::.cpu.data              1                       # miss rate for overall accesses
system.l2.overall_miss_rate::.switch_cpus.inst     0.361538                       # miss rate for overall accesses
system.l2.overall_miss_rate::.switch_cpus.data     0.293657                       # miss rate for overall accesses
system.l2.overall_miss_rate::total           0.294907                       # miss rate for overall accesses
system.l2.demand_avg_miss_latency::.switch_cpus.inst 81255.319149                       # average overall miss latency
system.l2.demand_avg_miss_latency::.switch_cpus.data 79102.879828                       # average overall miss latency
system.l2.demand_avg_miss_latency::total 79059.432718                       # average overall miss latency
system.l2.overall_avg_miss_latency::.switch_cpus.inst 81255.319149                       # average overall miss latency
system.l2.overall_avg_miss_latency::.switch_cpus.data 79102.879828                       # average overall miss latency
system.l2.overall_avg_miss_latency::total 79059.432718                       # average overall miss latency
system.l2.blocked_cycles::no_mshrs                  0                       # number of cycles access was blocked
system.l2.blocked_cycles::no_targets                0                       # number of cycles access was blocked
system.l2.blocked::no_mshrs                         0                       # number of cycles access was blocked
system.l2.blocked::no_targets                       0                       # number of cycles access was blocked
system.l2.avg_blocked_cycles::no_mshrs            nan                       # average number of cycles each access was blocked
system.l2.avg_blocked_cycles::no_targets          nan                       # average number of cycles each access was blocked
system.l2.writebacks::.writebacks                3543                       # number of writebacks
system.l2.writebacks::total                      3543                       # number of writebacks
system.l2.demand_mshr_misses::.switch_cpus.inst          141                       # number of demand (read+write) MSHR misses
system.l2.demand_mshr_misses::.switch_cpus.data         7431                       # number of demand (read+write) MSHR misses
system.l2.demand_mshr_misses::total              7572                       # number of demand (read+write) MSHR misses
system.l2.overall_mshr_misses::.switch_cpus.inst          141                       # number of overall MSHR misses
system.l2.overall_mshr_misses::.switch_cpus.data         7431                       # number of overall MSHR misses
system.l2.overall_mshr_misses::total             7572                       # number of overall MSHR misses
system.l2.demand_mshr_miss_latency::.switch_cpus.inst     10047000                       # number of demand (read+write) MSHR miss cycles
system.l2.demand_mshr_miss_latency::.switch_cpus.data    513503500                       # number of demand (read+write) MSHR miss cycles
system.l2.demand_mshr_miss_latency::total    523550500                       # number of demand (read+write) MSHR miss cycles
system.l2.overall_mshr_miss_latency::.switch_cpus.inst     10047000                       # number of overall MSHR miss cycles
system.l2.overall_mshr_miss_latency::.switch_cpus.data    513503500                       # number of overall MSHR miss cycles
system.l2.overall_mshr_miss_latency::total    523550500                       # number of overall MSHR miss cycles
system.l2.demand_mshr_miss_rate::.switch_cpus.inst     0.361538                       # mshr miss rate for demand accesses
system.l2.demand_mshr_miss_rate::.switch_cpus.data     0.293657                       # mshr miss rate for demand accesses
system.l2.demand_mshr_miss_rate::total       0.294596                       # mshr miss rate for demand accesses
system.l2.overall_mshr_miss_rate::.switch_cpus.inst     0.361538                       # mshr miss rate for overall accesses
system.l2.overall_mshr_miss_rate::.switch_cpus.data     0.293657                       # mshr miss rate for overall accesses
system.l2.overall_mshr_miss_rate::total      0.294596                       # mshr miss rate for overall accesses
system.l2.demand_avg_mshr_miss_latency::.switch_cpus.inst 71255.319149                       # average overall mshr miss latency
system.l2.demand_avg_mshr_miss_latency::.switch_cpus.data 69102.879828                       # average overall mshr miss latency
system.l2.demand_avg_mshr_miss_latency::total 69142.960909                       # average overall mshr miss latency
system.l2.overall_avg_mshr_miss_latency::.switch_cpus.inst 71255.319149                       # average overall mshr miss latency
system.l2.overall_avg_mshr_miss_latency::.switch_cpus.data 69102.879828                       # average overall mshr miss latency
system.l2.overall_avg_mshr_miss_latency::total 69142.960909                       # average overall mshr miss latency
system.l2.replacements                          12503                       # number of replacements
system.l2.WritebackDirty_hits::.writebacks        18950                       # number of WritebackDirty hits
system.l2.WritebackDirty_hits::total            18950                       # number of WritebackDirty hits
system.l2.WritebackDirty_accesses::.writebacks        18950                       # number of WritebackDirty accesses(hits+misses)
system.l2.WritebackDirty_accesses::total        18950                       # number of WritebackDirty accesses(hits+misses)
system.l2.WritebackClean_hits::.writebacks          264                       # number of WritebackClean hits
system.l2.WritebackClean_hits::total              264                       # number of WritebackClean hits
system.l2.WritebackClean_accesses::.writebacks          264                       # number of WritebackClean accesses(hits+misses)
system.l2.WritebackClean_accesses::total          264                       # number of WritebackClean accesses(hits+misses)
system.l2.CleanEvict_mshr_misses::.writebacks         1853                       # number of CleanEvict MSHR misses
system.l2.CleanEvict_mshr_misses::total          1853                       # number of CleanEvict MSHR misses
system.l2.CleanEvict_mshr_miss_rate::.writebacks          inf                       # mshr miss rate for CleanEvict accesses
system.l2.CleanEvict_mshr_miss_rate::total          inf                       # mshr miss rate for CleanEvict accesses
system.l2.ReadExReq_hits::.switch_cpus.data        14254                       # number of ReadExReq hits
system.l2.ReadExReq_hits::total                 14254                       # number of ReadExReq hits
system.l2.ReadExReq_misses::.cpu.data               1                       # number of ReadExReq misses
system.l2.ReadExReq_misses::.switch_cpus.data         4947                       # number of ReadExReq misses
system.l2.ReadExReq_misses::total                4948                       # number of ReadExReq misses
system.l2.ReadExReq_miss_latency::.switch_cpus.data    381837000                       # number of ReadExReq miss cycles
system.l2.ReadExReq_miss_latency::total     381837000                       # number of ReadExReq miss cycles
system.l2.ReadExReq_accesses::.cpu.data             1                       # number of ReadExReq accesses(hits+misses)
system.l2.ReadExReq_accesses::.switch_cpus.data        19201                       # number of ReadExReq accesses(hits+misses)
system.l2.ReadExReq_accesses::total             19202                       # number of ReadExReq accesses(hits+misses)
system.l2.ReadExReq_miss_rate::.cpu.data            1                       # miss rate for ReadExReq accesses
system.l2.ReadExReq_miss_rate::.switch_cpus.data     0.257643                       # miss rate for ReadExReq accesses
system.l2.ReadExReq_miss_rate::total         0.257681                       # miss rate for ReadExReq accesses
system.l2.ReadExReq_avg_miss_latency::.switch_cpus.data 77185.567010                       # average ReadExReq miss latency
system.l2.ReadExReq_avg_miss_latency::total 77169.967664                       # average ReadExReq miss latency
system.l2.ReadExReq_mshr_misses::.switch_cpus.data         4947                       # number of ReadExReq MSHR misses
system.l2.ReadExReq_mshr_misses::total           4947                       # number of ReadExReq MSHR misses
system.l2.ReadExReq_mshr_miss_latency::.switch_cpus.data    332367000                       # number of ReadExReq MSHR miss cycles
system.l2.ReadExReq_mshr_miss_latency::total    332367000                       # number of ReadExReq MSHR miss cycles
system.l2.ReadExReq_mshr_miss_rate::.switch_cpus.data     0.257643                       # mshr miss rate for ReadExReq accesses
system.l2.ReadExReq_mshr_miss_rate::total     0.257629                       # mshr miss rate for ReadExReq accesses
system.l2.ReadExReq_avg_mshr_miss_latency::.switch_cpus.data 67185.567010                       # average ReadExReq mshr miss latency
system.l2.ReadExReq_avg_mshr_miss_latency::total 67185.567010                       # average ReadExReq mshr miss latency
system.l2.ReadCleanReq_hits::.switch_cpus.inst          249                       # number of ReadCleanReq hits
system.l2.ReadCleanReq_hits::total                249                       # number of ReadCleanReq hits
system.l2.ReadCleanReq_misses::.cpu.inst            2                       # number of ReadCleanReq misses
system.l2.ReadCleanReq_misses::.switch_cpus.inst          141                       # number of ReadCleanReq misses
system.l2.ReadCleanReq_misses::total              143                       # number of ReadCleanReq misses
system.l2.ReadCleanReq_miss_latency::.switch_cpus.inst     11457000                       # number of ReadCleanReq miss cycles
system.l2.ReadCleanReq_miss_latency::total     11457000                       # number of ReadCleanReq miss cycles
system.l2.ReadCleanReq_accesses::.cpu.inst            2                       # number of ReadCleanReq accesses(hits+misses)
system.l2.ReadCleanReq_accesses::.switch_cpus.inst          390                       # number of ReadCleanReq accesses(hits+misses)
system.l2.ReadCleanReq_accesses::total            392                       # number of ReadCleanReq accesses(hits+misses)
system.l2.ReadCleanReq_miss_rate::.cpu.inst            1                       # miss rate for ReadCleanReq accesses
system.l2.ReadCleanReq_miss_rate::.switch_cpus.inst     0.361538                       # miss rate for ReadCleanReq accesses
[...]
system.cpu.itb_walker_cache.blocked_cycles::no_mshrs            0                       # number of cycles access was blocked
system.cpu.itb_walker_cache.blocked_cycles::no_targets            0                       # number of cycles access was blocked
system.cpu.itb_walker_cache.blocked::no_mshrs            0                       # number of cycles access was blocked
system.cpu.itb_walker_cache.blocked::no_targets            0                       # number of cycles access was blocked
system.cpu.itb_walker_cache.avg_blocked_cycles::no_mshrs          nan                       # average number of cycles each access was blocked
system.cpu.itb_walker_cache.avg_blocked_cycles::no_targets          nan                       # average number of cycles each access was blocked
system.cpu.itb_walker_cache.replacements            0                       # number of replacements
system.cpu.itb_walker_cache.tags.pwrStateResidencyTicks::UNDEFINED 120516967035000                       # Cumulative time (in ticks) in various power states
system.cpu.itb_walker_cache.tags.tagsinuse            0                       # Cycle average of tags in use
system.cpu.itb_walker_cache.tags.total_refs            0                       # Total number of references to valid blocks.
system.cpu.itb_walker_cache.tags.sampled_refs            0                       # Sample count of references to valid blocks.
system.cpu.itb_walker_cache.tags.avg_refs          nan                       # Average number of references to valid blocks.
system.cpu.itb_walker_cache.tags.warmup_cycle            0                       # Cycle when the warmup percentage was hit.
system.cpu.itb_walker_cache.tags.tag_accesses            0                       # Number of tag accesses
system.cpu.itb_walker_cache.tags.data_accesses            0                       # Number of data accesses
system.cpu.itb.walker.pwrStateResidencyTicks::UNDEFINED 120516967035000                       # Cumulative time (in ticks) in various power states
system.cpu.dtb_walker_cache.pwrStateResidencyTicks::UNDEFINED 120516967035000                       # Cumulative time (in ticks) in various power states
system.cpu.dtb_walker_cache.blocked_cycles::no_mshrs            0                       # number of cycles access was blocked
system.cpu.dtb_walker_cache.blocked_cycles::no_targets            0                       # number of cycles access was blocked
system.cpu.dtb_walker_cache.blocked::no_mshrs            0                       # number of cycles access was blocked
system.cpu.dtb_walker_cache.blocked::no_targets            0                       # number of cycles access was blocked
system.cpu.dtb_walker_cache.avg_blocked_cycles::no_mshrs          nan                       # average number of cycles each access was blocked
system.cpu.dtb_walker_cache.avg_blocked_cycles::no_targets          nan                       # average number of cycles each access was blocked
system.cpu.dtb_walker_cache.replacements            0                       # number of replacements
system.cpu.dtb_walker_cache.tags.pwrStateResidencyTicks::UNDEFINED 120516967035000                       # Cumulative time (in ticks) in various power states
system.cpu.dtb_walker_cache.tags.tagsinuse            0                       # Cycle average of tags in use
system.cpu.dtb_walker_cache.tags.total_refs            0                       # Total number of references to valid blocks.
system.cpu.dtb_walker_cache.tags.sampled_refs            0                       # Sample count of references to valid blocks.
system.cpu.dtb_walker_cache.tags.avg_refs          nan                       # Average number of references to valid blocks.
system.cpu.dtb_walker_cache.tags.warmup_cycle            0                       # Cycle when the warmup percentage was hit.
system.cpu.dtb_walker_cache.tags.tag_accesses            0                       # Number of tag accesses
system.cpu.dtb_walker_cache.tags.data_accesses            0                       # Number of data accesses
system.cpu.dcache.pwrStateResidencyTicks::UNDEFINED 120516967035000                       # Cumulative time (in ticks) in various power states
system.cpu.dcache.demand_hits::.cpu.data            2                       # number of demand (read+write) hits
system.cpu.dcache.demand_hits::.switch_cpus.data     18692957                       # number of demand (read+write) hits
system.cpu.dcache.demand_hits::total         18692959                       # number of demand (read+write) hits
system.cpu.dcache.overall_hits::.cpu.data            2                       # number of overall hits
system.cpu.dcache.overall_hits::.switch_cpus.data     18692957                       # number of overall hits
system.cpu.dcache.overall_hits::total        18692959                       # number of overall hits
system.cpu.dcache.demand_misses::.cpu.data            6                       # number of demand (read+write) misses
system.cpu.dcache.demand_misses::.switch_cpus.data       109838                       # number of demand (read+write) misses
system.cpu.dcache.demand_misses::total         109844                       # number of demand (read+write) misses
system.cpu.dcache.overall_misses::.cpu.data            6                       # number of overall misses
system.cpu.dcache.overall_misses::.switch_cpus.data       109838                       # number of overall misses
system.cpu.dcache.overall_misses::total        109844                       # number of overall misses
system.cpu.dcache.demand_miss_latency::.switch_cpus.data   3492668985                       # number of demand (read+write) miss cycles
system.cpu.dcache.demand_miss_latency::total   3492668985                       # number of demand (read+write) miss cycles
system.cpu.dcache.overall_miss_latency::.switch_cpus.data   3492668985                       # number of overall miss cycles
system.cpu.dcache.overall_miss_latency::total   3492668985                       # number of overall miss cycles
system.cpu.dcache.demand_accesses::.cpu.data            8                       # number of demand (read+write) accesses
system.cpu.dcache.demand_accesses::.switch_cpus.data     18802795                       # number of demand (read+write) accesses
system.cpu.dcache.demand_accesses::total     18802803                       # number of demand (read+write) accesses
system.cpu.dcache.overall_accesses::.cpu.data            8                       # number of overall (read+write) accesses
system.cpu.dcache.overall_accesses::.switch_cpus.data     18802795                       # number of overall (read+write) accesses
system.cpu.dcache.overall_accesses::total     18802803                       # number of overall (read+write) accesses
system.cpu.dcache.demand_miss_rate::.cpu.data     0.750000                       # miss rate for demand accesses
system.cpu.dcache.demand_miss_rate::.switch_cpus.data     0.005842                       # miss rate for demand accesses
system.cpu.dcache.demand_miss_rate::total     0.005842                       # miss rate for demand accesses
system.cpu.dcache.overall_miss_rate::.cpu.data     0.750000                       # miss rate for overall accesses
system.cpu.dcache.overall_miss_rate::.switch_cpus.data     0.005842                       # miss rate for overall accesses
system.cpu.dcache.overall_miss_rate::total     0.005842                       # miss rate for overall accesses
system.cpu.dcache.demand_avg_miss_latency::.switch_cpus.data 31798.366549                       # average overall miss latency
system.cpu.dcache.demand_avg_miss_latency::total 31796.629629                       # average overall miss latency
system.cpu.dcache.overall_avg_miss_latency::.switch_cpus.data 31798.366549                       # average overall miss latency
system.cpu.dcache.overall_avg_miss_latency::total 31796.629629                       # average overall miss latency
system.cpu.dcache.blocked_cycles::no_mshrs        34054                       # number of cycles access was blocked
system.cpu.dcache.blocked_cycles::no_targets          358                       # number of cycles access was blocked
system.cpu.dcache.blocked::no_mshrs              1214                       # number of cycles access was blocked
system.cpu.dcache.blocked::no_targets               5                       # number of cycles access was blocked
system.cpu.dcache.avg_blocked_cycles::no_mshrs    28.051071                       # average number of cycles each access was blocked
system.cpu.dcache.avg_blocked_cycles::no_targets    71.600000                       # average number of cycles each access was blocked
system.cpu.dcache.writebacks::.writebacks        81697                       # number of writebacks
system.cpu.dcache.writebacks::total             81697                       # number of writebacks
system.cpu.dcache.demand_mshr_hits::.switch_cpus.data         4586                       # number of demand (read+write) MSHR hits
system.cpu.dcache.demand_mshr_hits::total         4586                       # number of demand (read+write) MSHR hits
system.cpu.dcache.overall_mshr_hits::.switch_cpus.data         4586                       # number of overall MSHR hits
system.cpu.dcache.overall_mshr_hits::total         4586                       # number of overall MSHR hits
system.cpu.dcache.demand_mshr_misses::.switch_cpus.data       105252                       # number of demand (read+write) MSHR misses
system.cpu.dcache.demand_mshr_misses::total       105252                       # number of demand (read+write) MSHR misses
system.cpu.dcache.overall_mshr_misses::.switch_cpus.data       105252                       # number of overall MSHR misses
system.cpu.dcache.overall_mshr_misses::total       105252                       # number of overall MSHR misses
system.cpu.dcache.demand_mshr_miss_latency::.switch_cpus.data   3238117485                       # number of demand (read+write) MSHR miss cycles
system.cpu.dcache.demand_mshr_miss_latency::total   3238117485                       # number of demand (read+write) MSHR miss cycles
system.cpu.dcache.overall_mshr_miss_latency::.switch_cpus.data   3238117485                       # number of overall MSHR miss cycles
system.cpu.dcache.overall_mshr_miss_latency::total   3238117485                       # number of overall MSHR miss cycles
system.cpu.dcache.demand_mshr_miss_rate::.switch_cpus.data     0.005598                       # mshr miss rate for demand accesses
system.cpu.dcache.demand_mshr_miss_rate::total     0.005598                       # mshr miss rate for demand accesses
system.cpu.dcache.overall_mshr_miss_rate::.switch_cpus.data     0.005598                       # mshr miss rate for overall accesses
system.cpu.dcache.overall_mshr_miss_rate::total     0.005598                       # mshr miss rate for overall accesses
system.cpu.dcache.demand_avg_mshr_miss_latency::.switch_cpus.data 30765.377237                       # average overall mshr miss latency
system.cpu.dcache.demand_avg_mshr_miss_latency::total 30765.377237                       # average overall mshr miss latency
system.cpu.dcache.overall_avg_mshr_miss_latency::.switch_cpus.data 30765.377237                       # average overall mshr miss latency
system.cpu.dcache.overall_avg_mshr_miss_latency::total 30765.377237                       # average overall mshr miss latency
system.cpu.dcache.replacements                 104234                       # number of replacements
system.cpu.dcache.ReadReq_hits::.cpu.data            1                       # number of ReadReq hits
system.cpu.dcache.ReadReq_hits::.switch_cpus.data     13178507                       # number of ReadReq hits
system.cpu.dcache.ReadReq_hits::total        13178508                       # number of ReadReq hits
system.cpu.dcache.ReadReq_misses::.cpu.data            5                       # number of ReadReq misses
system.cpu.dcache.ReadReq_misses::.switch_cpus.data        29384                       # number of ReadReq misses
system.cpu.dcache.ReadReq_misses::total         29389                       # number of ReadReq misses
system.cpu.dcache.ReadReq_miss_latency::.switch_cpus.data   1150881000                       # number of ReadReq miss cycles
system.cpu.dcache.ReadReq_miss_latency::total   1150881000                       # number of ReadReq miss cycles
system.cpu.dcache.ReadReq_accesses::.cpu.data            6                       # number of ReadReq accesses(hits+misses)
system.cpu.dcache.ReadReq_accesses::.switch_cpus.data     13207891                       # number of ReadReq accesses(hits+misses)
system.cpu.dcache.ReadReq_accesses::total     13207897                       # number of ReadReq accesses(hits+misses)
system.cpu.dcache.ReadReq_miss_rate::.cpu.data     0.833333                       # miss rate for ReadReq accesses
system.cpu.dcache.ReadReq_miss_rate::.switch_cpus.data     0.002225                       # miss rate for ReadReq accesses
system.cpu.dcache.ReadReq_miss_rate::total     0.002225                       # miss rate for ReadReq accesses
system.cpu.dcache.ReadReq_avg_miss_latency::.switch_cpus.data 39166.927580                       # average ReadReq miss latency
system.cpu.dcache.ReadReq_avg_miss_latency::total 39160.264044                       # average ReadReq miss latency
system.cpu.dcache.ReadReq_mshr_hits::.switch_cpus.data         4586                       # number of ReadReq MSHR hits
system.cpu.dcache.ReadReq_mshr_hits::total         4586                       # number of ReadReq MSHR hits
system.cpu.dcache.ReadReq_mshr_misses::.switch_cpus.data        24798                       # number of ReadReq MSHR misses
system.cpu.dcache.ReadReq_mshr_misses::total        24798                       # number of ReadReq MSHR misses
system.cpu.dcache.ReadReq_mshr_miss_latency::.switch_cpus.data    976783500                       # number of ReadReq MSHR miss cycles
system.cpu.dcache.ReadReq_mshr_miss_latency::total    976783500                       # number of ReadReq MSHR miss cycles
system.cpu.dcache.ReadReq_mshr_miss_rate::.switch_cpus.data     0.001878                       # mshr miss rate for ReadReq accesses
system.cpu.dcache.ReadReq_mshr_miss_rate::total     0.001878                       # mshr miss rate for ReadReq accesses
system.cpu.dcache.ReadReq_avg_mshr_miss_latency::.switch_cpus.data 39389.608033                       # average ReadReq mshr miss latency
system.cpu.dcache.ReadReq_avg_mshr_miss_latency::total 39389.608033                       # average ReadReq mshr miss latency
system.cpu.dcache.WriteReq_hits::.cpu.data            1                       # number of WriteReq hits
system.cpu.dcache.WriteReq_hits::.switch_cpus.data      5514450                       # number of WriteReq hits
system.cpu.dcache.WriteReq_hits::total        5514451                       # number of WriteReq hits
system.cpu.dcache.WriteReq_misses::.cpu.data            1                       # number of WriteReq misses
system.cpu.dcache.WriteReq_misses::.switch_cpus.data        80454                       # number of WriteReq misses
system.cpu.dcache.WriteReq_misses::total        80455                       # number of WriteReq misses
system.cpu.dcache.WriteReq_miss_latency::.switch_cpus.data   2341787985                       # number of WriteReq miss cycles
system.cpu.dcache.WriteReq_miss_latency::total   2341787985                       # number of WriteReq miss cycles
system.cpu.dcache.WriteReq_accesses::.cpu.data            2                       # number of WriteReq accesses(hits+misses)
system.cpu.dcache.WriteReq_accesses::.switch_cpus.data      5594904                       # number of WriteReq accesses(hits+misses)
system.cpu.dcache.WriteReq_accesses::total      5594906                       # number of WriteReq accesses(hits+misses)
system.cpu.dcache.WriteReq_miss_rate::.cpu.data     0.500000                       # miss rate for WriteReq accesses
system.cpu.dcache.WriteReq_miss_rate::.switch_cpus.data     0.014380                       # miss rate for WriteReq accesses
system.cpu.dcache.WriteReq_miss_rate::total     0.014380                       # miss rate for WriteReq accesses
system.cpu.dcache.WriteReq_avg_miss_latency::.switch_cpus.data 29107.166642                       # average WriteReq miss latency
system.cpu.dcache.WriteReq_avg_miss_latency::total 29106.804860                       # average WriteReq miss latency
system.cpu.dcache.WriteReq_mshr_misses::.switch_cpus.data        80454                       # number of WriteReq MSHR misses
system.cpu.dcache.WriteReq_mshr_misses::total        80454                       # number of WriteReq MSHR misses
system.cpu.dcache.WriteReq_mshr_miss_latency::.switch_cpus.data   2261333985                       # number of WriteReq MSHR miss cycles
system.cpu.dcache.WriteReq_mshr_miss_latency::total   2261333985                       # number of WriteReq MSHR miss cycles
system.cpu.dcache.WriteReq_mshr_miss_rate::.switch_cpus.data     0.014380                       # mshr miss rate for WriteReq accesses
system.cpu.dcache.WriteReq_mshr_miss_rate::total     0.014380                       # mshr miss rate for WriteReq accesses
system.cpu.dcache.WriteReq_avg_mshr_miss_latency::.switch_cpus.data 28107.166642                       # average WriteReq mshr miss latency
system.cpu.dcache.WriteReq_avg_mshr_miss_latency::total 28107.166642                       # average WriteReq mshr miss latency
system.cpu.dcache.tags.pwrStateResidencyTicks::UNDEFINED 120516967035000                       # Cumulative time (in ticks) in various power states
system.cpu.dcache.tags.tagsinuse             0.097326                       # Cycle average of tags in use
system.cpu.dcache.tags.total_refs            18798217                       # Total number of references to valid blocks.
system.cpu.dcache.tags.sampled_refs            105258                       # Sample count of references to valid blocks.
system.cpu.dcache.tags.avg_refs            178.591812                       # Average number of references to valid blocks.
system.cpu.dcache.tags.warmup_cycle      120505440077000                       # Cycle when the warmup percentage was hit.
system.cpu.dcache.tags.occ_blocks::.cpu.data     0.000311                       # Average occupied blocks per requestor
system.cpu.dcache.tags.occ_blocks::.switch_cpus.data     0.097015                       # Average occupied blocks per requestor
system.cpu.dcache.tags.occ_percent::.cpu.data     0.000000                       # Average percentage of cache occupancy
system.cpu.dcache.tags.occ_percent::.switch_cpus.data     0.000095                       # Average percentage of cache occupancy
system.cpu.dcache.tags.occ_percent::total     0.000095                       # Average percentage of cache occupancy
system.cpu.dcache.tags.occ_task_id_blocks::1024         1024                       # Occupied blocks per task id
system.cpu.dcache.tags.age_task_id_blocks_1024::0           10                       # Occupied blocks per task id
system.cpu.dcache.tags.age_task_id_blocks_1024::1          769                       # Occupied blocks per task id
system.cpu.dcache.tags.age_task_id_blocks_1024::2          209                       # Occupied blocks per task id
system.cpu.dcache.tags.age_task_id_blocks_1024::3            9                       # Occupied blocks per task id
system.cpu.dcache.tags.age_task_id_blocks_1024::4           27                       # Occupied blocks per task id
system.cpu.dcache.tags.occ_task_id_percent::1024            1                       # Percentage of cache occupancy per task id
system.cpu.dcache.tags.tag_accesses          37710864                       # Number of tag accesses
system.cpu.dcache.tags.data_accesses         37710864                       # Number of data accesses

---------- End Simulation Statistics   ----------
