
---------- Begin Simulation Statistics ----------
final_tick                               81939666828500                       # Number of ticks from beginning of simulation (restored from checkpoints and never reset)
host_inst_rate                                  78416                       # Simulator instruction rate (inst/s)
host_mem_usage                                 792248                       # Number of bytes of host memory used
host_op_rate                                   125774                       # Simulator op (including micro ops) rate (op/s)
host_seconds                                   127.53                       # Real time elapsed on the host
host_tick_rate                               20376786                       # Simulator tick rate (ticks/s)
sim_freq                                 1000000000000                       # Frequency of simulated ticks
sim_insts                                    10000011                       # Number of instructions simulated
sim_ops                                      16039482                       # Number of ops (including micro ops) simulated
sim_seconds                                  0.002599                       # Number of seconds simulated
sim_ticks                                  2598571000                       # Number of ticks simulated
system.cpu.committedInsts                          11                       # Number of instructions committed
system.cpu.committedOps                            16                       # Number of ops (including micro ops) committed
system.cpu.dtb.rdAccesses                           5                       # TLB accesses on read requests
system.cpu.dtb.rdMisses                             0                       # TLB misses on read requests
system.cpu.dtb.wrAccesses                           2                       # TLB accesses on write requests
system.cpu.dtb.wrMisses                             0                       # TLB misses on write requests
system.cpu.idle_fraction                            0                       # Percentage of idle cycles
system.cpu.itb.rdAccesses                           0                       # TLB accesses on read requests
system.cpu.itb.rdMisses                             0                       # TLB misses on read requests
system.cpu.itb.wrAccesses                          16                       # TLB accesses on write requests
system.cpu.itb.wrMisses                             0                       # TLB misses on write requests
system.cpu.not_idle_fraction                        1                       # Percentage of non-idle cycles
system.cpu.numCycles                               21                       # number of cpu cycles simulated
system.cpu.numWorkItemsCompleted                    0                       # number of work items this cpu completed
system.cpu.numWorkItemsStarted                      0                       # number of work items this cpu started
system.cpu.num_busy_cycles                         21                       # Number of busy cycles
system.cpu.num_cc_register_reads                   20                       # number of times the CC registers were read
system.cpu.num_cc_register_writes                   8                       # number of times the CC registers were written
system.cpu.num_conditional_control_insts            0                       # number of instructions that are conditional controls
system.cpu.num_fp_alu_accesses                      0                       # Number of float alu accesses
system.cpu.num_fp_insts                             0                       # number of float instructions
system.cpu.num_fp_register_reads                    0                       # number of times the floating registers were read
system.cpu.num_fp_register_writes                   0                       # number of times the floating registers were written
system.cpu.num_func_calls                           0                       # number of times a function call or return occured
system.cpu.num_idle_cycles                          0                       # Number of idle cycles
system.cpu.num_int_alu_accesses                    16                       # Number of integer alu accesses
system.cpu.num_int_insts                           16                       # number of integer instructions
system.cpu.num_int_register_reads                  43                       # number of times the integer registers were read
system.cpu.num_int_register_writes                 14                       # number of times the integer registers were written
system.cpu.num_load_insts                           5                       # Number of load instructions
system.cpu.num_mem_refs                             7                       # number of memory refs
system.cpu.num_store_insts                          2                       # Number of store instructions
system.cpu.num_vec_alu_accesses                     0                       # Number of vector alu accesses
system.cpu.num_vec_insts                            0                       # number of vector instructions
system.cpu.num_vec_register_reads                   0                       # number of times the vector registers were read
system.cpu.num_vec_register_writes                  0                       # number of times the vector registers were written
system.cpu.op_class::No_OpClass                     0      0.00%      0.00% # Class of executed instruction
system.cpu.op_class::IntAlu                         9     56.25%     56.25% # Class of executed instruction
system.cpu.op_class::IntMult                        0      0.00%     56.25% # Class of executed instruction
system.cpu.op_class::IntDiv                         0      0.00%     56.25% # Class of executed instruction
system.cpu.op_class::FloatAdd                       0      0.00%     56.25% # Class of executed instruction
system.cpu.op_class::FloatCmp                       0      0.00%     56.25% # Class of executed instruction
system.cpu.op_class::FloatCvt                       0      0.00%     56.25% # Class of executed instruction
system.cpu.op_class::FloatMult                      0      0.00%     56.25% # Class of executed instruction
system.cpu.op_class::FloatMultAcc                   0      0.00%     56.25% # Class of executed instruction
system.cpu.op_class::FloatDiv                       0      0.00%     56.25% # Class of executed instruction
system.cpu.op_class::FloatMisc                      0      0.00%     56.25% # Class of executed instruction
system.cpu.op_class::FloatSqrt                      0      0.00%     56.25% # Class of executed instruction
system.cpu.op_class::SimdAdd                        0      0.00%     56.25% # Class of executed instruction
system.cpu.op_class::SimdAddAcc                     0      0.00%     56.25% # Class of executed instruction
system.cpu.op_class::SimdAlu                        0      0.00%     56.25% # Class of executed instruction
system.cpu.op_class::SimdCmp                        0      0.00%     56.25% # Class of executed instruction
system.cpu.op_class::SimdCvt                        0      0.00%     56.25% # Class of executed instruction
system.cpu.op_class::SimdMisc                       0      0.00%     56.25% # Class of executed instruction
system.cpu.op_class::SimdMult                       0      0.00%     56.25% # Class of executed instruction
system.cpu.op_class::SimdMultAcc                    0      0.00%     56.25% # Class of executed instruction
system.cpu.op_class::SimdShift                      0      0.00%     56.25% # Class of executed instruction
system.cpu.op_class::SimdShiftAcc                   0      0.00%     56.25% # Class of executed instruction
system.cpu.op_class::SimdDiv                        0      0.00%     56.25% # Class of executed instruction
system.cpu.op_class::SimdSqrt                       0      0.00%     56.25% # Class of executed instruction
system.cpu.op_class::SimdFloatAdd                   0      0.00%     56.25% # Class of executed instruction
system.cpu.op_class::SimdFloatAlu                   0      0.00%     56.25% # Class of executed instruction
system.cpu.op_class::SimdFloatCmp                   0      0.00%     56.25% # Class of executed instruction
system.cpu.op_class::SimdFloatCvt                   0      0.00%     56.25% # Class of executed instruction
system.cpu.op_class::SimdFloatDiv                   0      0.00%     56.25% # Class of executed instruction
system.cpu.op_class::SimdFloatMisc                  0      0.00%     56.25% # Class of executed instruction
system.cpu.op_class::SimdFloatMult                  0      0.00%     56.25% # Class of executed instruction
system.cpu.op_class::SimdFloatMultAcc               0      0.00%     56.25% # Class of executed instruction
system.cpu.op_class::SimdFloatSqrt                  0      0.00%     56.25% # Class of executed instruction
system.cpu.op_class::SimdReduceAdd                  0      0.00%     56.25% # Class of executed instruction
system.cpu.op_class::SimdReduceAlu                  0      0.00%     56.25% # Class of executed instruction
system.cpu.op_class::SimdReduceCmp                  0      0.00%     56.25% # Class of executed instruction
system.cpu.op_class::SimdFloatReduceAdd             0      0.00%     56.25% # Class of executed instruction
system.cpu.op_class::SimdFloatReduceCmp             0      0.00%     56.25% # Class of executed instruction
system.cpu.op_class::SimdAes                        0      0.00%     56.25% # Class of executed instruction
system.cpu.op_class::SimdAesMix                     0      0.00%     56.25% # Class of executed instruction
system.cpu.op_class::SimdSha1Hash                   0      0.00%     56.25% # Class of executed instruction
system.cpu.op_class::SimdSha1Hash2                  0      0.00%     56.25% # Class of executed instruction
system.cpu.op_class::SimdSha256Hash                 0      0.00%     56.25% # Class of executed instruction
system.cpu.op_class::SimdSha256Hash2                0      0.00%     56.25% # Class of executed instruction
system.cpu.op_class::SimdShaSigma2                  0      0.00%     56.25% # Class of executed instruction
system.cpu.op_class::SimdShaSigma3                  0      0.00%     56.25% # Class of executed instruction
system.cpu.op_class::SimdPredAlu                    0      0.00%     56.25% # Class of executed instruction
system.cpu.op_class::MemRead                        5     31.25%     87.50% # Class of executed instruction
system.cpu.op_class::MemWrite                       2     12.50%    100.00% # Class of executed instruction
system.cpu.op_class::FloatMemRead                   0      0.00%    100.00% # Class of executed instruction
system.cpu.op_class::FloatMemWrite                  0      0.00%    100.00% # Class of executed instruction
system.cpu.op_class::IprAccess                      0      0.00%    100.00% # Class of executed instruction
system.cpu.op_class::InstPrefetch                   0      0.00%    100.00% # Class of executed instruction
system.cpu.op_class::total                         16                       # Class of executed instruction
system.cpu.workload.numSyscalls                     0                       # Number of system calls
system.l2.prefetcher.num_hwpf_issued              577                       # number of hwpf issued
system.l2.prefetcher.pfBufferHit                    0                       # number of redundant prefetches already in prefetch queue
system.l2.prefetcher.pfIdentified                 577                       # number of prefetch candidates identified
system.l2.prefetcher.pfInCache                      0                       # number of redundant prefetches already in cache/mshr dropped
system.l2.prefetcher.pfRemovedFull                  0                       # number of prefetches dropped due to prefetch queue size
system.l2.prefetcher.pfSpanPage                    71                       # number of prefetches that crossed the page
system.membus.snoop_filter.hit_multi_requests            0                       # Number of requests hitting in the snoop filter with multiple (>1) holders of the requested data.
system.membus.snoop_filter.hit_multi_snoops            0                       # Number of snoops hitting in the snoop filter with multiple (>1) holders of the requested data.
system.membus.snoop_filter.hit_single_requests           85                       # Number of requests hitting in the snoop filter with a single holder of the requested data.
system.membus.snoop_filter.hit_single_snoops            0                       # Number of snoops hitting in the snoop filter with a single holder of the requested data.
system.membus.snoop_filter.tot_requests          2866                       # Total number of requests made to the snoop filter.
system.membus.snoop_filter.tot_snoops               0                       # Total number of snoops made to the snoop filter.
system.switch_cpus.branchPred.BTBCorrect            0                       # Number of correct BTB predictions (this stat may not work properly.
system.switch_cpus.branchPred.BTBHitPct      0.000000                       # BTB Hit Percentage
system.switch_cpus.branchPred.BTBHits               0                       # Number of BTB hits
system.switch_cpus.branchPred.BTBLookups       640901                       # Number of BTB lookups
system.switch_cpus.branchPred.RASInCorrect            1                       # Number of incorrect RAS predictions.
system.switch_cpus.branchPred.condIncorrect        20812                       # Number of conditional branches incorrect
system.switch_cpus.branchPred.condPredicted       861874                       # Number of conditional branches predicted
system.switch_cpus.branchPred.indirectHits       499247                       # Number of indirect target hits.
system.switch_cpus.branchPred.indirectLookups       640901                       # Number of indirect predictor lookups.
system.switch_cpus.branchPred.indirectMisses       141654                       # Number of indirect misses.
system.switch_cpus.branchPred.lookups          946085                       # Number of BP lookups
system.switch_cpus.branchPred.usedRAS           41171                       # Number of times the RAS was used to get a target.
system.switch_cpus.branchPredindirectMispredicted         3112                       # Number of mispredicted indirect branches.
system.switch_cpus.cc_regfile_reads          14092650                       # number of cc regfile reads
system.switch_cpus.cc_regfile_writes          7120388                       # number of cc regfile writes
system.switch_cpus.commit.amos                      0                       # Number of atomic instructions committed
system.switch_cpus.commit.branchMispredicts        20839                       # The number of times a branch was mispredicted
system.switch_cpus.commit.branches             716889                       # Number of branches committed
system.switch_cpus.commit.bw_lim_events       1255673                       # number cycles where commit BW limit reached
system.switch_cpus.commit.commitSquashedInsts      1257756                       # The number of squashed insts skipped by commit
system.switch_cpus.commit.committedInsts     10000000                       # Number of instructions committed
system.switch_cpus.commit.committedOps       16039466                       # Number of ops (including micro ops) committed
system.switch_cpus.commit.committed_per_cycle::samples      5019253                       # Number of insts commited each cycle
system.switch_cpus.commit.committed_per_cycle::mean     3.195588                       # Number of insts commited each cycle
system.switch_cpus.commit.committed_per_cycle::stdev     3.115204                       # Number of insts commited each cycle
system.switch_cpus.commit.committed_per_cycle::underflows            0      0.00%      0.00% # Number of insts commited each cycle
system.switch_cpus.commit.committed_per_cycle::0       745952     14.86%     14.86% # Number of insts commited each cycle
system.switch_cpus.commit.committed_per_cycle::1      1879565     37.45%     52.31% # Number of insts commited each cycle
system.switch_cpus.commit.committed_per_cycle::2       417131      8.31%     60.62% # Number of insts commited each cycle
system.switch_cpus.commit.committed_per_cycle::3       202177      4.03%     64.65% # Number of insts commited each cycle
system.switch_cpus.commit.committed_per_cycle::4       151531      3.02%     67.67% # Number of insts commited each cycle
system.switch_cpus.commit.committed_per_cycle::5       177092      3.53%     71.19% # Number of insts commited each cycle
system.switch_cpus.commit.committed_per_cycle::6       148784      2.96%     74.16% # Number of insts commited each cycle
system.switch_cpus.commit.committed_per_cycle::7        41348      0.82%     74.98% # Number of insts commited each cycle
system.switch_cpus.commit.committed_per_cycle::8      1255673     25.02%    100.00% # Number of insts commited each cycle
system.switch_cpus.commit.committed_per_cycle::overflows            0      0.00%    100.00% # Number of insts commited each cycle
system.switch_cpus.commit.committed_per_cycle::min_value            0                       # Number of insts commited each cycle
system.switch_cpus.commit.committed_per_cycle::max_value            8                       # Number of insts commited each cycle
system.switch_cpus.commit.committed_per_cycle::total      5019253                       # Number of insts commited each cycle
system.switch_cpus.commit.fp_insts            1422468                       # Number of committed floating point instructions.
system.switch_cpus.commit.function_calls        32268                       # Number of function calls committed.
system.switch_cpus.commit.int_insts          14820827                       # Number of committed integer instructions.
system.switch_cpus.commit.loads               3605608                       # Number of loads committed
system.switch_cpus.commit.membars                   0                       # Number of memory barriers committed
system.switch_cpus.commit.op_class_0::No_OpClass        95096      0.59%      0.59% # Class of committed instruction
system.switch_cpus.commit.op_class_0::IntAlu      9834473     61.31%     61.91% # Class of committed instruction
system.switch_cpus.commit.op_class_0::IntMult        85136      0.53%     62.44% # Class of committed instruction
system.switch_cpus.commit.op_class_0::IntDiv            0      0.00%     62.44% # Class of committed instruction
system.switch_cpus.commit.op_class_0::FloatAdd        32304      0.20%     62.64% # Class of committed instruction
system.switch_cpus.commit.op_class_0::FloatCmp            0      0.00%     62.64% # Class of committed instruction
system.switch_cpus.commit.op_class_0::FloatCvt            0      0.00%     62.64% # Class of committed instruction
system.switch_cpus.commit.op_class_0::FloatMult            0      0.00%     62.64% # Class of committed instruction
system.switch_cpus.commit.op_class_0::FloatMultAcc            0      0.00%     62.64% # Class of committed instruction
system.switch_cpus.commit.op_class_0::FloatDiv            0      0.00%     62.64% # Class of committed instruction
system.switch_cpus.commit.op_class_0::FloatMisc            0      0.00%     62.64% # Class of committed instruction
system.switch_cpus.commit.op_class_0::FloatSqrt            0      0.00%     62.64% # Class of committed instruction
system.switch_cpus.commit.op_class_0::SimdAdd        21092      0.13%     62.77% # Class of committed instruction
system.switch_cpus.commit.op_class_0::SimdAddAcc            0      0.00%     62.77% # Class of committed instruction
system.switch_cpus.commit.op_class_0::SimdAlu       328288      2.05%     64.82% # Class of committed instruction
system.switch_cpus.commit.op_class_0::SimdCmp            0      0.00%     64.82% # Class of committed instruction
system.switch_cpus.commit.op_class_0::SimdCvt       126484      0.79%     65.61% # Class of committed instruction
system.switch_cpus.commit.op_class_0::SimdMisc       158973      0.99%     66.60% # Class of committed instruction
system.switch_cpus.commit.op_class_0::SimdMult            0      0.00%     66.60% # Class of committed instruction
system.switch_cpus.commit.op_class_0::SimdMultAcc            0      0.00%     66.60% # Class of committed instruction
system.switch_cpus.commit.op_class_0::SimdShift        63276      0.39%     66.99% # Class of committed instruction
system.switch_cpus.commit.op_class_0::SimdShiftAcc            0      0.00%     66.99% # Class of committed instruction
system.switch_cpus.commit.op_class_0::SimdDiv            0      0.00%     66.99% # Class of committed instruction
system.switch_cpus.commit.op_class_0::SimdSqrt            0      0.00%     66.99% # Class of committed instruction
system.switch_cpus.commit.op_class_0::SimdFloatAdd       107593      0.67%     67.66% # Class of committed instruction
system.switch_cpus.commit.op_class_0::SimdFloatAlu            0      0.00%     67.66% # Class of committed instruction
system.switch_cpus.commit.op_class_0::SimdFloatCmp           32      0.00%     67.66% # Class of committed instruction
system.switch_cpus.commit.op_class_0::SimdFloatCvt       150578      0.94%     68.60% # Class of committed instruction
system.switch_cpus.commit.op_class_0::SimdFloatDiv        21316      0.13%     68.73% # Class of committed instruction
system.switch_cpus.commit.op_class_0::SimdFloatMisc            0      0.00%     68.73% # Class of committed instruction
system.switch_cpus.commit.op_class_0::SimdFloatMult        11022      0.07%     68.80% # Class of committed instruction
system.switch_cpus.commit.op_class_0::SimdFloatMultAcc            0      0.00%     68.80% # Class of committed instruction
system.switch_cpus.commit.op_class_0::SimdFloatSqrt            0      0.00%     68.80% # Class of committed instruction
system.switch_cpus.commit.op_class_0::SimdReduceAdd            0      0.00%     68.80% # Class of committed instruction
system.switch_cpus.commit.op_class_0::SimdReduceAlu            0      0.00%     68.80% # Class of committed instruction
system.switch_cpus.commit.op_class_0::SimdReduceCmp            0      0.00%     68.80% # Class of committed instruction
system.switch_cpus.commit.op_class_0::SimdFloatReduceAdd            0      0.00%     68.80% # Class of committed instruction
system.switch_cpus.commit.op_class_0::SimdFloatReduceCmp            0      0.00%     68.80% # Class of committed instruction
system.switch_cpus.commit.op_class_0::SimdAes            0      0.00%     68.80% # Class of committed instruction
system.switch_cpus.commit.op_class_0::SimdAesMix            0      0.00%     68.80% # Class of committed instruction
system.switch_cpus.commit.op_class_0::SimdSha1Hash            0      0.00%     68.80% # Class of committed instruction
system.switch_cpus.commit.op_class_0::SimdSha1Hash2            0      0.00%     68.80% # Class of committed instruction
system.switch_cpus.commit.op_class_0::SimdSha256Hash            0      0.00%     68.80% # Class of committed instruction
system.switch_cpus.commit.op_class_0::SimdSha256Hash2            0      0.00%     68.80% # Class of committed instruction
system.switch_cpus.commit.op_class_0::SimdShaSigma2            0      0.00%     68.80% # Class of committed instruction
system.switch_cpus.commit.op_class_0::SimdShaSigma3            0      0.00%     68.80% # Class of committed instruction
system.switch_cpus.commit.op_class_0::SimdPredAlu            0      0.00%     68.80% # Class of committed instruction
system.switch_cpus.commit.op_class_0::MemRead      3381319     21.08%     89.88% # Class of committed instruction
system.switch_cpus.commit.op_class_0::MemWrite      1397848      8.72%     98.60% # Class of committed instruction
system.switch_cpus.commit.op_class_0::FloatMemRead       224289      1.40%    100.00% # Class of committed instruction
system.switch_cpus.commit.op_class_0::FloatMemWrite          347      0.00%    100.00% # Class of committed instruction
system.switch_cpus.commit.op_class_0::IprAccess            0      0.00%    100.00% # Class of committed instruction
system.switch_cpus.commit.op_class_0::InstPrefetch            0      0.00%    100.00% # Class of committed instruction
system.switch_cpus.commit.op_class_0::total     16039466                       # Class of committed instruction
system.switch_cpus.commit.refs                5003803                       # Number of memory references committed
system.switch_cpus.commit.swp_count                 0                       # Number of s/w prefetches committed
system.switch_cpus.commit.vec_insts                 0                       # Number of committed Vector instructions.
system.switch_cpus.committedInsts            10000000                       # Number of Instructions Simulated
system.switch_cpus.committedOps              16039466                       # Number of Ops (including micro ops) Simulated
system.switch_cpus.cpi                       0.519712                       # CPI: Cycles Per Instruction
system.switch_cpus.cpi_total                 0.519712                       # CPI: Total CPI of All Threads
system.switch_cpus.decode.BlockedCycles       2285602                       # Number of cycles decode is blocked
system.switch_cpus.decode.DecodedInsts       17652507                       # Number of instructions handled by decode
system.switch_cpus.decode.IdleCycles           552827                       # Number of cycles decode is idle
system.switch_cpus.decode.RunCycles           1565914                       # Number of cycles decode is running
system.switch_cpus.decode.SquashCycles          21057                       # Number of cycles decode is squashing
system.switch_cpus.decode.UnblockCycles        762516                       # Number of cycles decode is unblocking
system.switch_cpus.dtb.rdAccesses             3694337                       # TLB accesses on read requests
system.switch_cpus.dtb.rdMisses                    63                       # TLB misses on read requests
system.switch_cpus.dtb.wrAccesses             1411733                       # TLB accesses on write requests
system.switch_cpus.dtb.wrMisses                    78                       # TLB misses on write requests
system.switch_cpus.fetch.Branches              946085                       # Number of branches that fetch encountered
system.switch_cpus.fetch.CacheLines            857093                       # Number of cache lines fetched
system.switch_cpus.fetch.Cycles               4295181                       # Number of cycles fetch has run and was not squashing or blocked
system.switch_cpus.fetch.IcacheSquashes          4051                       # Number of outstanding Icache misses that were squashed
system.switch_cpus.fetch.Insts               10968159                       # Number of instructions fetch has processed
system.switch_cpus.fetch.MiscStallCycles           27                       # Number of cycles fetch has spent waiting on interrupts, or bad addresses, or out of MSHRs
system.switch_cpus.fetch.PendingTrapStallCycles          164                       # Number of stall cycles due to pending traps
system.switch_cpus.fetch.SquashCycles           42114                       # Number of cycles fetch has spent squashing
system.switch_cpus.fetch.branchRate          0.182040                       # Number of branch fetches per cycle
system.switch_cpus.fetch.icacheStallCycles       871495                       # Number of cycles fetch is stalled on an Icache miss
system.switch_cpus.fetch.predictedBranches       540418                       # Number of branches that fetch has predicted taken
system.switch_cpus.fetch.rate                2.110430                       # Number of inst fetches per cycle
system.switch_cpus.fetch.rateDist::samples      5187924                       # Number of instructions fetched each cycle (Total)
system.switch_cpus.fetch.rateDist::mean      3.449217                       # Number of instructions fetched each cycle (Total)
system.switch_cpus.fetch.rateDist::stdev     3.555614                       # Number of instructions fetched each cycle (Total)
system.switch_cpus.fetch.rateDist::underflows            0      0.00%      0.00% # Number of instructions fetched each cycle (Total)
system.switch_cpus.fetch.rateDist::0          2377290     45.82%     45.82% # Number of instructions fetched each cycle (Total)
system.switch_cpus.fetch.rateDist::1           132505      2.55%     48.38% # Number of instructions fetched each cycle (Total)
system.switch_cpus.fetch.rateDist::2           106093      2.04%     50.42% # Number of instructions fetched each cycle (Total)
system.switch_cpus.fetch.rateDist::3           148793      2.87%     53.29% # Number of instructions fetched each cycle (Total)
system.switch_cpus.fetch.rateDist::4           181017      3.49%     56.78% # Number of instructions fetched each cycle (Total)
system.switch_cpus.fetch.rateDist::5           342356      6.60%     63.38% # Number of instructions fetched each cycle (Total)
system.switch_cpus.fetch.rateDist::6           170077      3.28%     66.66% # Number of instructions fetched each cycle (Total)
system.switch_cpus.fetch.rateDist::7           191449      3.69%     70.35% # Number of instructions fetched each cycle (Total)
system.switch_cpus.fetch.rateDist::8          1538344     29.65%    100.00% # Number of instructions fetched each cycle (Total)
system.switch_cpus.fetch.rateDist::overflows            0      0.00%    100.00% # Number of instructions fetched each cycle (Total)
system.switch_cpus.fetch.rateDist::min_value            0                       # Number of instructions fetched each cycle (Total)
system.switch_cpus.fetch.rateDist::max_value            8                       # Number of instructions fetched each cycle (Total)
system.switch_cpus.fetch.rateDist::total      5187924                       # Number of instructions fetched each cycle (Total)
system.switch_cpus.fp_regfile_reads           2745729                       # number of floating regfile reads
system.switch_cpus.fp_regfile_writes          1368377                       # number of floating regfile writes
system.switch_cpus.idleCycles                    9197                       # Total number of cycles that the CPU has spent unscheduled due to idling
system.switch_cpus.iew.branchMispredicts        34532                       # Number of branch mispredicts detected at execute
system.switch_cpus.iew.exec_branches           782036                       # Number of branches executed
system.switch_cpus.iew.exec_nop                     0                       # number of nop insts executed
system.switch_cpus.iew.exec_rate             3.229212                       # Inst execution rate
system.switch_cpus.iew.exec_refs              5100456                       # number of memory reference insts executed
system.switch_cpus.iew.exec_stores            1411733                       # Number of stores executed
system.switch_cpus.iew.exec_swp                     0                       # number of swp insts executed
system.switch_cpus.iew.iewBlockCycles          149098                       # Number of cycles IEW is blocking
system.switch_cpus.iew.iewDispLoadInsts       3723096                       # Number of dispatched load instructions
system.switch_cpus.iew.iewDispNonSpecInsts            2                       # Number of dispatched non-speculative instructions
system.switch_cpus.iew.iewDispSquashedInsts          592                       # Number of squashed instructions skipped by dispatch
system.switch_cpus.iew.iewDispStoreInsts      1429407                       # Number of dispatched store instructions
system.switch_cpus.iew.iewDispatchedInsts     17297254                       # Number of instructions dispatched to IQ
system.switch_cpus.iew.iewExecLoadInsts       3688723                       # Number of load instructions executed
system.switch_cpus.iew.iewExecSquashedInsts        35343                       # Number of squashed instructions skipped in execute
system.switch_cpus.iew.iewExecutedInsts      16782607                       # Number of executed instructions
system.switch_cpus.iew.iewIQFullEvents            102                       # Number of times the IQ has become full, causing a stall
system.switch_cpus.iew.iewIdleCycles                0                       # Number of cycles IEW is idle
system.switch_cpus.iew.iewLSQFullEvents         12097                       # Number of times the LSQ has become full, causing a stall
system.switch_cpus.iew.iewSquashCycles          21057                       # Number of cycles IEW is squashing
system.switch_cpus.iew.iewUnblockCycles         12215                       # Number of cycles IEW is unblocking
system.switch_cpus.iew.lsq.thread0.blockedLoads            0                       # Number of blocked loads due to partial load-store forwarding
system.switch_cpus.iew.lsq.thread0.cacheBlocked          124                       # Number of times an access to memory failed due to the cache being blocked
system.switch_cpus.iew.lsq.thread0.forwLoads       383611                       # Number of loads that had data forwarded from stores
system.switch_cpus.iew.lsq.thread0.ignoredResponses           54                       # Number of memory responses ignored because the instruction is squashed
system.switch_cpus.iew.lsq.thread0.invAddrLoads            0                       # Number of loads ignored due to an invalid address
system.switch_cpus.iew.lsq.thread0.invAddrSwpfs            0                       # Number of software prefetches ignored due to an invalid address
system.switch_cpus.iew.lsq.thread0.memOrderViolation          257                       # Number of memory ordering violations
system.switch_cpus.iew.lsq.thread0.rescheduledLoads            0                       # Number of loads that were rescheduled
system.switch_cpus.iew.lsq.thread0.squashedLoads       117471                       # Number of loads squashed
system.switch_cpus.iew.lsq.thread0.squashedStores        31207                       # Number of stores squashed
system.switch_cpus.iew.memOrderViolationEvents          257                       # Number of memory order violations
system.switch_cpus.iew.predictedNotTakenIncorrect        29002                       # Number of branches that were predicted not taken incorrectly
system.switch_cpus.iew.predictedTakenIncorrect         5530                       # Number of branches that were predicted taken incorrectly
system.switch_cpus.iew.wb_consumers          26955475                       # num instructions consuming a value
system.switch_cpus.iew.wb_count              16765016                       # cumulative count of insts written-back
system.switch_cpus.iew.wb_fanout             0.498500                       # average fanout of values written-back
system.switch_cpus.iew.wb_producers          13437292                       # num instructions producing a value
system.switch_cpus.iew.wb_rate               3.225828                       # insts written-back per cycle
system.switch_cpus.iew.wb_sent               16772161                       # cumulative count of insts sent to commit
system.switch_cpus.int_regfile_reads         29047007                       # number of integer regfile reads
system.switch_cpus.int_regfile_writes        13101469                       # number of integer regfile writes
system.switch_cpus.ipc                       1.924142                       # IPC: Instructions Per Cycle
system.switch_cpus.ipc_total                 1.924142                       # IPC: Total IPC of All Threads
system.switch_cpus.iq.FU_type_0::No_OpClass       100200      0.60%      0.60% # Type of FU issued
system.switch_cpus.iq.FU_type_0::IntAlu      10415305     61.93%     62.53% # Type of FU issued
system.switch_cpus.iq.FU_type_0::IntMult        86890      0.52%     63.04% # Type of FU issued
system.switch_cpus.iq.FU_type_0::IntDiv             0      0.00%     63.04% # Type of FU issued
system.switch_cpus.iq.FU_type_0::FloatAdd        34950      0.21%     63.25% # Type of FU issued
system.switch_cpus.iq.FU_type_0::FloatCmp            0      0.00%     63.25% # Type of FU issued
system.switch_cpus.iq.FU_type_0::FloatCvt            0      0.00%     63.25% # Type of FU issued
system.switch_cpus.iq.FU_type_0::FloatMult            0      0.00%     63.25% # Type of FU issued
system.switch_cpus.iq.FU_type_0::FloatMultAcc            0      0.00%     63.25% # Type of FU issued
system.switch_cpus.iq.FU_type_0::FloatDiv            0      0.00%     63.25% # Type of FU issued
system.switch_cpus.iq.FU_type_0::FloatMisc            0      0.00%     63.25% # Type of FU issued
system.switch_cpus.iq.FU_type_0::FloatSqrt            0      0.00%     63.25% # Type of FU issued
system.switch_cpus.iq.FU_type_0::SimdAdd        21092      0.13%     63.38% # Type of FU issued
system.switch_cpus.iq.FU_type_0::SimdAddAcc            0      0.00%     63.38% # Type of FU issued
system.switch_cpus.iq.FU_type_0::SimdAlu       342809      2.04%     65.41% # Type of FU issued
system.switch_cpus.iq.FU_type_0::SimdCmp            0      0.00%     65.41% # Type of FU issued
system.switch_cpus.iq.FU_type_0::SimdCvt       129338      0.77%     66.18% # Type of FU issued
system.switch_cpus.iq.FU_type_0::SimdMisc       161076      0.96%     67.14% # Type of FU issued
system.switch_cpus.iq.FU_type_0::SimdMult            0      0.00%     67.14% # Type of FU issued
system.switch_cpus.iq.FU_type_0::SimdMultAcc            0      0.00%     67.14% # Type of FU issued
system.switch_cpus.iq.FU_type_0::SimdShift        63358      0.38%     67.52% # Type of FU issued
system.switch_cpus.iq.FU_type_0::SimdShiftAcc            0      0.00%     67.52% # Type of FU issued
system.switch_cpus.iq.FU_type_0::SimdDiv            0      0.00%     67.52% # Type of FU issued
system.switch_cpus.iq.FU_type_0::SimdSqrt            0      0.00%     67.52% # Type of FU issued
system.switch_cpus.iq.FU_type_0::SimdFloatAdd       138930      0.83%     68.34% # Type of FU issued
system.switch_cpus.iq.FU_type_0::SimdFloatAlu            0      0.00%     68.34% # Type of FU issued
system.switch_cpus.iq.FU_type_0::SimdFloatCmp           54      0.00%     68.34% # Type of FU issued
system.switch_cpus.iq.FU_type_0::SimdFloatCvt       176405      1.05%     69.39% # Type of FU issued
system.switch_cpus.iq.FU_type_0::SimdFloatDiv        23315      0.14%     69.53% # Type of FU issued
system.switch_cpus.iq.FU_type_0::SimdFloatMisc            0      0.00%     69.53% # Type of FU issued
system.switch_cpus.iq.FU_type_0::SimdFloatMult        13101      0.08%     69.61% # Type of FU issued
system.switch_cpus.iq.FU_type_0::SimdFloatMultAcc            0      0.00%     69.61% # Type of FU issued
system.switch_cpus.iq.FU_type_0::SimdFloatSqrt            0      0.00%     69.61% # Type of FU issued
system.switch_cpus.iq.FU_type_0::SimdReduceAdd            0      0.00%     69.61% # Type of FU issued
system.switch_cpus.iq.FU_type_0::SimdReduceAlu            0      0.00%     69.61% # Type of FU issued
system.switch_cpus.iq.FU_type_0::SimdReduceCmp            0      0.00%     69.61% # Type of FU issued
system.switch_cpus.iq.FU_type_0::SimdFloatReduceAdd            0      0.00%     69.61% # Type of FU issued
system.switch_cpus.iq.FU_type_0::SimdFloatReduceCmp            0      0.00%     69.61% # Type of FU issued
system.switch_cpus.iq.FU_type_0::SimdAes            0      0.00%     69.61% # Type of FU issued
system.switch_cpus.iq.FU_type_0::SimdAesMix            0      0.00%     69.61% # Type of FU issued
system.switch_cpus.iq.FU_type_0::SimdSha1Hash            0      0.00%     69.61% # Type of FU issued
system.switch_cpus.iq.FU_type_0::SimdSha1Hash2            0      0.00%     69.61% # Type of FU issued
system.switch_cpus.iq.FU_type_0::SimdSha256Hash            0      0.00%     69.61% # Type of FU issued
system.switch_cpus.iq.FU_type_0::SimdSha256Hash2            0      0.00%     69.61% # Type of FU issued
system.switch_cpus.iq.FU_type_0::SimdShaSigma2            0      0.00%     69.61% # Type of FU issued
system.switch_cpus.iq.FU_type_0::SimdShaSigma3            0      0.00%     69.61% # Type of FU issued
system.switch_cpus.iq.FU_type_0::SimdPredAlu            0      0.00%     69.61% # Type of FU issued
system.switch_cpus.iq.FU_type_0::MemRead      3417511     20.32%     89.93% # Type of FU issued
system.switch_cpus.iq.FU_type_0::MemWrite      1413436      8.40%     98.33% # Type of FU issued
system.switch_cpus.iq.FU_type_0::FloatMemRead       279687      1.66%    100.00% # Type of FU issued
system.switch_cpus.iq.FU_type_0::FloatMemWrite          500      0.00%    100.00% # Type of FU issued
system.switch_cpus.iq.FU_type_0::IprAccess            0      0.00%    100.00% # Type of FU issued
system.switch_cpus.iq.FU_type_0::InstPrefetch            0      0.00%    100.00% # Type of FU issued
system.switch_cpus.iq.FU_type_0::total       16817957                       # Type of FU issued
system.switch_cpus.iq.fp_alu_accesses         1587719                       # Number of floating point alu accesses
system.switch_cpus.iq.fp_inst_queue_reads      3152179                       # Number of floating instruction queue reads
system.switch_cpus.iq.fp_inst_queue_wakeup_accesses      1546521                       # Number of floating instruction queue wakeup accesses
system.switch_cpus.iq.fp_inst_queue_writes      1900644                       # Number of floating instruction queue writes
system.switch_cpus.iq.fu_busy_cnt              199528                       # FU busy when requested
system.switch_cpus.iq.fu_busy_rate           0.011864                       # FU busy rate (busy events/executed inst)
system.switch_cpus.iq.fu_full::No_OpClass            0      0.00%      0.00% # attempts to use FU when none available
system.switch_cpus.iq.fu_full::IntAlu          118475     59.38%     59.38% # attempts to use FU when none available
system.switch_cpus.iq.fu_full::IntMult              0      0.00%     59.38% # attempts to use FU when none available
system.switch_cpus.iq.fu_full::IntDiv               0      0.00%     59.38% # attempts to use FU when none available
system.switch_cpus.iq.fu_full::FloatAdd             0      0.00%     59.38% # attempts to use FU when none available
system.switch_cpus.iq.fu_full::FloatCmp             0      0.00%     59.38% # attempts to use FU when none available
system.switch_cpus.iq.fu_full::FloatCvt             0      0.00%     59.38% # attempts to use FU when none available
system.switch_cpus.iq.fu_full::FloatMult            0      0.00%     59.38% # attempts to use FU when none available
system.switch_cpus.iq.fu_full::FloatMultAcc            0      0.00%     59.38% # attempts to use FU when none available
system.switch_cpus.iq.fu_full::FloatDiv             0      0.00%     59.38% # attempts to use FU when none available
system.switch_cpus.iq.fu_full::FloatMisc            0      0.00%     59.38% # attempts to use FU when none available
system.switch_cpus.iq.fu_full::FloatSqrt            0      0.00%     59.38% # attempts to use FU when none available
system.switch_cpus.iq.fu_full::SimdAdd              0      0.00%     59.38% # attempts to use FU when none available
system.switch_cpus.iq.fu_full::SimdAddAcc            0      0.00%     59.38% # attempts to use FU when none available
system.switch_cpus.iq.fu_full::SimdAlu            198      0.10%     59.48% # attempts to use FU when none available
system.switch_cpus.iq.fu_full::SimdCmp              0      0.00%     59.48% # attempts to use FU when none available
system.switch_cpus.iq.fu_full::SimdCvt           3329      1.67%     61.15% # attempts to use FU when none available
system.switch_cpus.iq.fu_full::SimdMisc            40      0.02%     61.17% # attempts to use FU when none available
system.switch_cpus.iq.fu_full::SimdMult             0      0.00%     61.17% # attempts to use FU when none available
system.switch_cpus.iq.fu_full::SimdMultAcc            0      0.00%     61.17% # attempts to use FU when none available
system.switch_cpus.iq.fu_full::SimdShift            3      0.00%     61.17% # attempts to use FU when none available
system.switch_cpus.iq.fu_full::SimdShiftAcc            0      0.00%     61.17% # attempts to use FU when none available
system.switch_cpus.iq.fu_full::SimdDiv              0      0.00%     61.17% # attempts to use FU when none available
system.switch_cpus.iq.fu_full::SimdSqrt             0      0.00%     61.17% # attempts to use FU when none available
system.switch_cpus.iq.fu_full::SimdFloatAdd         2708      1.36%     62.52% # attempts to use FU when none available
system.switch_cpus.iq.fu_full::SimdFloatAlu            0      0.00%     62.52% # attempts to use FU when none available
system.switch_cpus.iq.fu_full::SimdFloatCmp            0      0.00%     62.52% # attempts to use FU when none available
system.switch_cpus.iq.fu_full::SimdFloatCvt         9853      4.94%     67.46% # attempts to use FU when none available
system.switch_cpus.iq.fu_full::SimdFloatDiv            0      0.00%     67.46% # attempts to use FU when none available
system.switch_cpus.iq.fu_full::SimdFloatMisc            0      0.00%     67.46% # attempts to use FU when none available
system.switch_cpus.iq.fu_full::SimdFloatMult            0      0.00%     67.46% # attempts to use FU when none available
system.switch_cpus.iq.fu_full::SimdFloatMultAcc            0      0.00%     67.46% # attempts to use FU when none available
system.switch_cpus.iq.fu_full::SimdFloatSqrt            0      0.00%     67.46% # attempts to use FU when none available
system.switch_cpus.iq.fu_full::SimdReduceAdd            0      0.00%     67.46% # attempts to use FU when none available
system.switch_cpus.iq.fu_full::SimdReduceAlu            0      0.00%     67.46% # attempts to use FU when none available
system.switch_cpus.iq.fu_full::SimdReduceCmp            0      0.00%     67.46% # attempts to use FU when none available
system.switch_cpus.iq.fu_full::SimdFloatReduceAdd            0      0.00%     67.46% # attempts to use FU when none available
system.switch_cpus.iq.fu_full::SimdFloatReduceCmp            0      0.00%     67.46% # attempts to use FU when none available
system.switch_cpus.iq.fu_full::SimdAes              0      0.00%     67.46% # attempts to use FU when none available
system.switch_cpus.iq.fu_full::SimdAesMix            0      0.00%     67.46% # attempts to use FU when none available
system.switch_cpus.iq.fu_full::SimdSha1Hash            0      0.00%     67.46% # attempts to use FU when none available
system.switch_cpus.iq.fu_full::SimdSha1Hash2            0      0.00%     67.46% # attempts to use FU when none available
system.switch_cpus.iq.fu_full::SimdSha256Hash            0      0.00%     67.46% # attempts to use FU when none available
system.switch_cpus.iq.fu_full::SimdSha256Hash2            0      0.00%     67.46% # attempts to use FU when none available
system.switch_cpus.iq.fu_full::SimdShaSigma2            0      0.00%     67.46% # attempts to use FU when none available
system.switch_cpus.iq.fu_full::SimdShaSigma3            0      0.00%     67.46% # attempts to use FU when none available
system.switch_cpus.iq.fu_full::SimdPredAlu            0      0.00%     67.46% # attempts to use FU when none available
system.switch_cpus.iq.fu_full::MemRead          56483     28.31%     95.77% # attempts to use FU when none available
system.switch_cpus.iq.fu_full::MemWrite           359      0.18%     95.95% # attempts to use FU when none available
system.switch_cpus.iq.fu_full::FloatMemRead         8080      4.05%    100.00% # attempts to use FU when none available
system.switch_cpus.iq.fu_full::FloatMemWrite            0      0.00%    100.00% # attempts to use FU when none available
system.switch_cpus.iq.fu_full::IprAccess            0      0.00%    100.00% # attempts to use FU when none available
system.switch_cpus.iq.fu_full::InstPrefetch            0      0.00%    100.00% # attempts to use FU when none available
system.switch_cpus.iq.int_alu_accesses       15329566                       # Number of integer alu accesses
system.switch_cpus.iq.int_inst_queue_reads     35946922                       # Number of integer instruction queue reads
system.switch_cpus.iq.int_inst_queue_wakeup_accesses     15218495                       # Number of integer instruction queue wakeup accesses
system.switch_cpus.iq.int_inst_queue_writes     16654572                       # Number of integer instruction queue writes
system.switch_cpus.iq.iqInstsAdded           17297245                       # Number of instructions added to the IQ (excludes non-spec)
system.switch_cpus.iq.iqInstsIssued          16817957                       # Number of instructions issued
system.switch_cpus.iq.iqNonSpecInstsAdded            9                       # Number of non-speculative instructions added to the IQ
system.switch_cpus.iq.iqSquashedInstsExamined      1257709                       # Number of squashed instructions iterated over during squash; mainly for profiling
system.switch_cpus.iq.iqSquashedInstsIssued        75742                       # Number of squashed instructions issued
system.switch_cpus.iq.iqSquashedNonSpecRemoved            9                       # Number of squashed non-spec instructions that were removed
system.switch_cpus.iq.iqSquashedOperandsExamined      1781796                       # Number of squashed operands that are examined and possibly removed from graph
system.switch_cpus.iq.issued_per_cycle::samples      5187924                       # Number of insts issued each cycle
system.switch_cpus.iq.issued_per_cycle::mean     3.241751                       # Number of insts issued each cycle
system.switch_cpus.iq.issued_per_cycle::stdev     2.224713                       # Number of insts issued each cycle
system.switch_cpus.iq.issued_per_cycle::underflows            0      0.00%      0.00% # Number of insts issued each cycle
system.switch_cpus.iq.issued_per_cycle::0       648569     12.50%     12.50% # Number of insts issued each cycle
system.switch_cpus.iq.issued_per_cycle::1       614441     11.84%     24.35% # Number of insts issued each cycle
system.switch_cpus.iq.issued_per_cycle::2       873802     16.84%     41.19% # Number of insts issued each cycle
system.switch_cpus.iq.issued_per_cycle::3       852663     16.44%     57.62% # Number of insts issued each cycle
system.switch_cpus.iq.issued_per_cycle::4       721353     13.90%     71.53% # Number of insts issued each cycle
system.switch_cpus.iq.issued_per_cycle::5       617057     11.89%     83.42% # Number of insts issued each cycle
system.switch_cpus.iq.issued_per_cycle::6       349281      6.73%     90.15% # Number of insts issued each cycle
system.switch_cpus.iq.issued_per_cycle::7       254524      4.91%     95.06% # Number of insts issued each cycle
system.switch_cpus.iq.issued_per_cycle::8       256234      4.94%    100.00% # Number of insts issued each cycle
system.switch_cpus.iq.issued_per_cycle::overflows            0      0.00%    100.00% # Number of insts issued each cycle
system.switch_cpus.iq.issued_per_cycle::min_value            0                       # Number of insts issued each cycle
system.switch_cpus.iq.issued_per_cycle::max_value            8                       # Number of insts issued each cycle
system.switch_cpus.iq.issued_per_cycle::total      5187924                       # Number of insts issued each cycle
system.switch_cpus.iq.rate                   3.236014                       # Inst issue rate
system.switch_cpus.iq.vec_alu_accesses              0                       # Number of vector alu accesses
system.switch_cpus.iq.vec_inst_queue_reads            0                       # Number of vector instruction queue reads
system.switch_cpus.iq.vec_inst_queue_wakeup_accesses            0                       # Number of vector instruction queue wakeup accesses
system.switch_cpus.iq.vec_inst_queue_writes            0                       # Number of vector instruction queue writes
system.switch_cpus.itb.rdAccesses                   0                       # TLB accesses on read requests
system.switch_cpus.itb.rdMisses                     0                       # TLB misses on read requests
system.switch_cpus.itb.wrAccesses              857121                       # TLB accesses on write requests
system.switch_cpus.itb.wrMisses                    42                       # TLB misses on write requests
system.switch_cpus.memDep0.conflictingLoads       327343                       # Number of conflicting loads.
system.switch_cpus.memDep0.conflictingStores       241439                       # Number of conflicting stores.
system.switch_cpus.memDep0.insertedLoads      3723096                       # Number of loads inserted to the mem dependence unit.
system.switch_cpus.memDep0.insertedStores      1429407                       # Number of stores inserted to the mem dependence unit.
system.switch_cpus.misc_regfile_reads         6736401                       # number of misc regfile reads
system.switch_cpus.misc_regfile_writes              1                       # number of misc regfile writes
system.switch_cpus.numCycles                  5197121                       # number of cpu cycles simulated
system.switch_cpus.numWorkItemsCompleted            0                       # number of work items this cpu completed
system.switch_cpus.numWorkItemsStarted              0                       # number of work items this cpu started
system.switch_cpus.rename.BlockCycles          189480                       # Number of cycles rename is blocking
system.switch_cpus.rename.CommittedMaps      20732556                       # Number of HB maps that are committed
system.switch_cpus.rename.IQFullEvents         139187                       # Number of times rename has blocked due to IQ full
system.switch_cpus.rename.IdleCycles           875934                       # Number of cycles rename is idle
system.switch_cpus.rename.LQFullEvents         505408                       # Number of times rename has blocked due to LQ full
system.switch_cpus.rename.ROBFullEvents          2686                       # Number of times rename has blocked due to ROB full
system.switch_cpus.rename.RenameLookups      54994000                       # Number of register rename lookups that rename has made
system.switch_cpus.rename.RenamedInsts       17534004                       # Number of instructions processed by rename
system.switch_cpus.rename.RenamedOperands     22505697                       # Number of destination operands rename has renamed
system.switch_cpus.rename.RunCycles           1994969                       # Number of cycles rename is running
system.switch_cpus.rename.SQFullEvents        1207375                       # Number of times rename has blocked due to SQ full
system.switch_cpus.rename.SquashCycles          21057                       # Number of cycles rename is squashing
system.switch_cpus.rename.UnblockCycles       2106476                       # Number of cycles rename is unblocking
system.switch_cpus.rename.UndoneMaps          1773006                       # Number of HB maps that are undone due to squashing
system.switch_cpus.rename.fp_rename_lookups      3014763                       # Number of floating rename lookups
system.switch_cpus.rename.int_rename_lookups     30084451                       # Number of integer rename lookups
system.switch_cpus.rename.serializeStallCycles            0                       # count of cycles rename stalled for serializing inst
system.switch_cpus.rename.serializingInsts            0                       # count of serializing insts renamed
system.switch_cpus.rename.skidInsts           4223176                       # count of insts added to the skid buffer
system.switch_cpus.rename.tempSerializingInsts            0                       # count of temporary serializing insts renamed
system.switch_cpus.rob.rob_reads             21060802                       # The number of ROB reads
system.switch_cpus.rob.rob_writes            34763794                       # The number of ROB writes
system.switch_cpus.timesIdled                     139                       # Number of times that the entire CPU went into an idle state and unscheduled itself
system.tol2bus.snoop_filter.hit_multi_requests            0                       # Number of requests hitting in the snoop filter with multiple (>1) holders of the requested data.
system.tol2bus.snoop_filter.hit_multi_snoops            0                       # Number of snoops hitting in the snoop filter with multiple (>1) holders of the requested data.
system.tol2bus.snoop_filter.hit_single_requests        24719                       # Number of requests hitting in the snoop filter with a single holder of the requested data.
system.tol2bus.snoop_filter.hit_single_snoops           97                       # Number of snoops hitting in the snoop filter with a single holder of the requested data.
system.tol2bus.snoop_filter.tot_requests        50585                       # Total number of requests made to the snoop filter.
system.tol2bus.snoop_filter.tot_snoops             97                       # Total number of snoops made to the snoop filter.
system.membus.pwrStateResidencyTicks::UNDEFINED 81939666828500                       # Cumulative time (in ticks) in various power states
system.membus.trans_dist::ReadResp               1063                       # Transaction distribution
system.membus.trans_dist::WritebackDirty           54                       # Transaction distribution
system.membus.trans_dist::CleanEvict               31                       # Transaction distribution
system.membus.trans_dist::ReadExReq              1718                       # Transaction distribution
system.membus.trans_dist::ReadExResp             1718                       # Transaction distribution
system.membus.trans_dist::ReadSharedReq          1063                       # Transaction distribution
system.membus.pkt_count_system.l2.mem_side::system.mem_ctrls.port         5647                       # Packet count per connected master and slave (bytes)
system.membus.pkt_count_system.l2.mem_side::total         5647                       # Packet count per connected master and slave (bytes)
system.membus.pkt_count::total                   5647                       # Packet count per connected master and slave (bytes)
system.membus.pkt_size_system.l2.mem_side::system.mem_ctrls.port       181440                       # Cumulative packet size per connected master and slave (bytes)
system.membus.pkt_size_system.l2.mem_side::total       181440                       # Cumulative packet size per connected master and slave (bytes)
system.membus.pkt_size::total                  181440                       # Cumulative packet size per connected master and slave (bytes)
system.membus.snoops                                0                       # Total snoops (count)
system.membus.snoopTraffic                          0                       # Total snoop traffic (bytes)
system.membus.snoop_fanout::samples              2781                       # Request fanout histogram
system.membus.snoop_fanout::mean                    0                       # Request fanout histogram
system.membus.snoop_fanout::stdev                   0                       # Request fanout histogram
system.membus.snoop_fanout::underflows              0      0.00%      0.00% # Request fanout histogram
system.membus.snoop_fanout::0                    2781    100.00%    100.00% # Request fanout histogram
system.membus.snoop_fanout::1                       0      0.00%    100.00% # Request fanout histogram
system.membus.snoop_fanout::overflows               0      0.00%    100.00% # Request fanout histogram
system.membus.snoop_fanout::min_value               0                       # Request fanout histogram
system.membus.snoop_fanout::max_value               0                       # Request fanout histogram
system.membus.snoop_fanout::total                2781                       # Request fanout histogram
system.membus.reqLayer2.occupancy             3646998                       # Layer occupancy (ticks)
system.membus.reqLayer2.utilization               0.1                       # Layer utilization (%)
system.membus.respLayer1.occupancy           14600000                       # Layer occupancy (ticks)
system.membus.respLayer1.utilization              0.6                       # Layer utilization (%)
system.switch_cpus.pwrStateResidencyTicks::OFF   2598571000                       # Cumulative time (in ticks) in various power states
system.switch_cpus.dtb.walker.pwrStateResidencyTicks::UNDEFINED 81939666828500                       # Cumulative time (in ticks) in various power states
system.switch_cpus.itb.walker.pwrStateResidencyTicks::UNDEFINED 81939666828500                       # Cumulative time (in ticks) in various power states
system.tol2bus.pwrStateResidencyTicks::UNDEFINED 81939666828500                       # Cumulative time (in ticks) in various power states
system.tol2bus.trans_dist::ReadResp              6525                       # Transaction distribution
system.tol2bus.trans_dist::WritebackDirty        19063                       # Transaction distribution
system.tol2bus.trans_dist::WritebackClean          257                       # Transaction distribution
system.tol2bus.trans_dist::CleanEvict            5568                       # Transaction distribution
system.tol2bus.trans_dist::HardPFReq              950                       # Transaction distribution
system.tol2bus.trans_dist::ReadExReq            19341                       # Transaction distribution
system.tol2bus.trans_dist::ReadExResp           19341                       # Transaction distribution
system.tol2bus.trans_dist::ReadCleanReq           380                       # Transaction distribution
system.tol2bus.trans_dist::ReadSharedReq         6145                       # Transaction distribution
system.tol2bus.pkt_count_system.cpu.icache.mem_side::system.l2.cpu_side         1017                       # Packet count per connected master and slave (bytes)
system.tol2bus.pkt_count_system.cpu.dcache.mem_side::system.l2.cpu_side        75434                       # Packet count per connected master and slave (bytes)
system.tol2bus.pkt_count::total                 76451                       # Packet count per connected master and slave (bytes)
system.tol2bus.pkt_size_system.cpu.icache.mem_side::system.l2.cpu_side        40768                       # Cumulative packet size per connected master and slave (bytes)
system.tol2bus.pkt_size_system.cpu.dcache.mem_side::system.l2.cpu_side      2847680                       # Cumulative packet size per connected master and slave (bytes)
system.tol2bus.pkt_size::total                2888448                       # Cumulative packet size per connected master and slave (bytes)
system.tol2bus.snoops                            1119                       # Total snoops (count)
system.tol2bus.snoopTraffic                      3456                       # Total snoop traffic (bytes)
system.tol2bus.snoop_fanout::samples            26985                       # Request fanout histogram
system.tol2bus.snoop_fanout::mean            0.003595                       # Request fanout histogram
system.tol2bus.snoop_fanout::stdev           0.059848                       # Request fanout histogram
system.tol2bus.snoop_fanout::underflows             0      0.00%      0.00% # Request fanout histogram
system.tol2bus.snoop_fanout::0                  26888     99.64%     99.64% # Request fanout histogram
system.tol2bus.snoop_fanout::1                     97      0.36%    100.00% # Request fanout histogram
system.tol2bus.snoop_fanout::2                      0      0.00%    100.00% # Request fanout histogram
system.tol2bus.snoop_fanout::3                      0      0.00%    100.00% # Request fanout histogram
system.tol2bus.snoop_fanout::4                      0      0.00%    100.00% # Request fanout histogram
system.tol2bus.snoop_fanout::overflows              0      0.00%    100.00% # Request fanout histogram
system.tol2bus.snoop_fanout::min_value              0                       # Request fanout histogram
system.tol2bus.snoop_fanout::max_value              1                       # Request fanout histogram
system.tol2bus.snoop_fanout::total              26985                       # Request fanout histogram
system.tol2bus.reqLayer0.occupancy           44555000                       # Layer occupancy (ticks)
system.tol2bus.reqLayer0.utilization              1.7                       # Layer utilization (%)
system.tol2bus.respLayer1.occupancy          38220000                       # Layer occupancy (ticks)
system.tol2bus.respLayer1.utilization             1.5                       # Layer utilization (%)
system.tol2bus.respLayer0.occupancy            568999                       # Layer occupancy (ticks)
system.tol2bus.respLayer0.utilization             0.0                       # Layer utilization (%)
system.voltage_domain.voltage                       1                       # Voltage in Volts
system.clk_domain.clock                          1000                       # Clock period in ticks
system.l2.pwrStateResidencyTicks::UNDEFINED 81939666828500                       # Cumulative time (in ticks) in various power states
system.l2.demand_hits::.switch_cpus.inst          252                       # number of demand (read+write) hits
system.l2.demand_hits::.switch_cpus.data        23383                       # number of demand (read+write) hits
system.l2.demand_hits::total                    23635                       # number of demand (read+write) hits
system.l2.overall_hits::.switch_cpus.inst          252                       # number of overall hits
system.l2.overall_hits::.switch_cpus.data        23383                       # number of overall hits
system.l2.overall_hits::total                   23635                       # number of overall hits
system.l2.demand_misses::.cpu.inst                  1                       # number of demand (read+write) misses
system.l2.demand_misses::.cpu.data                  6                       # number of demand (read+write) misses
system.l2.demand_misses::.switch_cpus.inst          127                       # number of demand (read+write) misses
system.l2.demand_misses::.switch_cpus.data         2097                       # number of demand (read+write) misses
system.l2.demand_misses::total                   2231                       # number of demand (read+write) misses
system.l2.overall_misses::.cpu.inst                 1                       # number of overall misses
system.l2.overall_misses::.cpu.data                 6                       # number of overall misses
system.l2.overall_misses::.switch_cpus.inst          127                       # number of overall misses
system.l2.overall_misses::.switch_cpus.data         2097                       # number of overall misses
system.l2.overall_misses::total                  2231                       # number of overall misses
system.l2.demand_miss_latency::.switch_cpus.inst      9923500                       # number of demand (read+write) miss cycles
system.l2.demand_miss_latency::.switch_cpus.data    166942000                       # number of demand (read+write) miss cycles
system.l2.demand_miss_latency::total        176865500                       # number of demand (read+write) miss cycles
system.l2.overall_miss_latency::.switch_cpus.inst      9923500                       # number of overall miss cycles
system.l2.overall_miss_latency::.switch_cpus.data    166942000                       # number of overall miss cycles
system.l2.overall_miss_latency::total       176865500                       # number of overall miss cycles
system.l2.demand_accesses::.cpu.inst                1                       # number of demand (read+write) accesses
system.l2.demand_accesses::.cpu.data                6                       # number of demand (read+write) accesses
system.l2.demand_accesses::.switch_cpus.inst          379                       # number of demand (read+write) accesses
system.l2.demand_accesses::.switch_cpus.data        25480                       # number of demand (read+write) accesses
system.l2.demand_accesses::total                25866                       # number of demand (read+write) accesses
system.l2.overall_accesses::.cpu.inst               1                       # number of overall (read+write) accesses
system.l2.overall_accesses::.cpu.data               6                       # number of overall (read+write) accesses
system.l2.overall_accesses::.switch_cpus.inst          379                       # number of overall (read+write) accesses
system.l2.overall_accesses::.switch_cpus.data        25480                       # number of overall (read+write) accesses
system.l2.overall_accesses::total               25866                       # number of overall (read+write) accesses
system.l2.demand_miss_rate::.cpu.inst               1                       # miss rate for demand accesses
system.l2.demand_miss_rate::.cpu.data               1                       # miss rate for demand accesses
system.l2.demand_miss_rate::.switch_cpus.inst     0.335092                       # miss rate for demand accesses
system.l2.demand_miss_rate::.switch_cpus.data     0.082300                       # miss rate for demand accesses
system.l2.demand_miss_rate::total            0.086252                       # miss rate for demand accesses
system.l2.overall_miss_rate::.cpu.inst              1                       # miss rate for overall accesses
system.l2.overall_miss_rate::.cpu.data              1                       # miss rate for overall accesses
system.l2.overall_miss_rate::.switch_cpus.inst     0.335092                       # miss rate for overall accesses
system.l2.overall_miss_rate::.switch_cpus.data     0.082300                       # miss rate for overall accesses
system.l2.overall_miss_rate::total           0.086252                       # miss rate for overall accesses
system.l2.demand_avg_miss_latency::.switch_cpus.inst 78137.795276                       # average overall miss latency
system.l2.demand_avg_miss_latency::.switch_cpus.data 79609.918932                       # average overall miss latency
system.l2.demand_avg_miss_latency::total 79276.333483                       # average overall miss latency
system.l2.overall_avg_miss_latency::.switch_cpus.inst 78137.795276                       # average overall miss latency
system.l2.overall_avg_miss_latency::.switch_cpus.data 79609.918932                       # average overall miss latency
system.l2.overall_avg_miss_latency::total 79276.333483                       # average overall miss latency
system.l2.blocked_cycles::no_mshrs                  0                       # number of cycles access was blocked
system.l2.blocked_cycles::no_targets                0                       # number of cycles access was blocked
system.l2.blocked::no_mshrs                         0                       # number of cycles access was blocked
system.l2.blocked::no_targets                       0                       # number of cycles access was blocked
system.l2.avg_blocked_cycles::no_mshrs            nan                       # average number of cycles each access was blocked
system.l2.avg_blocked_cycles::no_targets          nan                       # average number of cycles each access was blocked
system.l2.unused_prefetches                         4                       # number of HardPF blocks evicted w/o reference
system.l2.writebacks::.writebacks                  54                       # number of writebacks
system.l2.writebacks::total                        54                       # number of writebacks
system.l2.demand_mshr_misses::.switch_cpus.inst          127                       # number of demand (read+write) MSHR misses
system.l2.demand_mshr_misses::.switch_cpus.data         2097                       # number of demand (read+write) MSHR misses
system.l2.demand_mshr_misses::total              2224                       # number of demand (read+write) MSHR misses
system.l2.overall_mshr_misses::.l2.prefetcher          550                       # number of overall MSHR misses
system.l2.overall_mshr_misses::.switch_cpus.inst          127                       # number of overall MSHR misses
system.l2.overall_mshr_misses::.switch_cpus.data         2097                       # number of overall MSHR misses
system.l2.overall_mshr_misses::total             2774                       # number of overall MSHR misses
system.l2.demand_mshr_miss_latency::.switch_cpus.inst      8653500                       # number of demand (read+write) MSHR miss cycles
system.l2.demand_mshr_miss_latency::.switch_cpus.data    145972000                       # number of demand (read+write) MSHR miss cycles
system.l2.demand_mshr_miss_latency::total    154625500                       # number of demand (read+write) MSHR miss cycles
system.l2.overall_mshr_miss_latency::.l2.prefetcher     36595088                       # number of overall MSHR miss cycles
system.l2.overall_mshr_miss_latency::.switch_cpus.inst      8653500                       # number of overall MSHR miss cycles
system.l2.overall_mshr_miss_latency::.switch_cpus.data    145972000                       # number of overall MSHR miss cycles
system.l2.overall_mshr_miss_latency::total    191220588                       # number of overall MSHR miss cycles
system.l2.demand_mshr_miss_rate::.switch_cpus.inst     0.335092                       # mshr miss rate for demand accesses
system.l2.demand_mshr_miss_rate::.switch_cpus.data     0.082300                       # mshr miss rate for demand accesses
system.l2.demand_mshr_miss_rate::total       0.085982                       # mshr miss rate for demand accesses
system.l2.overall_mshr_miss_rate::.l2.prefetcher          inf                       # mshr miss rate for overall accesses
system.l2.overall_mshr_miss_rate::.switch_cpus.inst     0.335092                       # mshr miss rate for overall accesses
system.l2.overall_mshr_miss_rate::.switch_cpus.data     0.082300                       # mshr miss rate for overall accesses
system.l2.overall_mshr_miss_rate::total      0.107245                       # mshr miss rate for overall accesses
system.l2.demand_avg_mshr_miss_latency::.switch_cpus.inst 68137.795276                       # average overall mshr miss latency
system.l2.demand_avg_mshr_miss_latency::.switch_cpus.data 69609.918932                       # average overall mshr miss latency
system.l2.demand_avg_mshr_miss_latency::total 69525.854317                       # average overall mshr miss latency
system.l2.overall_avg_mshr_miss_latency::.l2.prefetcher 66536.523636                       # average overall mshr miss latency
system.l2.overall_avg_mshr_miss_latency::.switch_cpus.inst 68137.795276                       # average overall mshr miss latency
system.l2.overall_avg_mshr_miss_latency::.switch_cpus.data 69609.918932                       # average overall mshr miss latency
system.l2.overall_avg_mshr_miss_latency::total 68933.160779                       # average overall mshr miss latency
system.l2.replacements                            169                       # number of replacements
system.l2.WritebackDirty_hits::.writebacks        19009                       # number of WritebackDirty hits
system.l2.WritebackDirty_hits::total            19009                       # number of WritebackDirty hits
system.l2.WritebackDirty_accesses::.writebacks        19009                       # number of WritebackDirty accesses(hits+misses)
system.l2.WritebackDirty_accesses::total        19009                       # number of WritebackDirty accesses(hits+misses)
system.l2.WritebackClean_hits::.writebacks          257                       # number of WritebackClean hits
system.l2.WritebackClean_hits::total              257                       # number of WritebackClean hits
system.l2.WritebackClean_accesses::.writebacks          257                       # number of WritebackClean accesses(hits+misses)
system.l2.WritebackClean_accesses::total          257                       # number of WritebackClean accesses(hits+misses)
system.l2.CleanEvict_mshr_misses::.writebacks           13                       # number of CleanEvict MSHR misses
system.l2.CleanEvict_mshr_misses::total            13                       # number of CleanEvict MSHR misses
system.l2.CleanEvict_mshr_miss_rate::.writebacks          inf                       # mshr miss rate for CleanEvict accesses
system.l2.CleanEvict_mshr_miss_rate::total          inf                       # mshr miss rate for CleanEvict accesses
system.l2.HardPFReq_mshr_misses::.l2.prefetcher          550                       # number of HardPFReq MSHR misses
system.l2.HardPFReq_mshr_misses::total            550                       # number of HardPFReq MSHR misses
system.l2.HardPFReq_mshr_miss_latency::.l2.prefetcher     36595088                       # number of HardPFReq MSHR miss cycles
system.l2.HardPFReq_mshr_miss_latency::total     36595088                       # number of HardPFReq MSHR miss cycles
system.l2.HardPFReq_mshr_miss_rate::.l2.prefetcher          inf                       # mshr miss rate for HardPFReq accesses
system.l2.HardPFReq_mshr_miss_rate::total          inf                       # mshr miss rate for HardPFReq accesses
system.l2.HardPFReq_avg_mshr_miss_latency::.l2.prefetcher 66536.523636                       # average HardPFReq mshr miss latency
system.l2.HardPFReq_avg_mshr_miss_latency::total 66536.523636                       # average HardPFReq mshr miss latency
system.l2.ReadExReq_hits::.switch_cpus.data        17623                       # number of ReadExReq hits
system.l2.ReadExReq_hits::total                 17623                       # number of ReadExReq hits
system.l2.ReadExReq_misses::.cpu.data               1                       # number of ReadExReq misses
system.l2.ReadExReq_misses::.switch_cpus.data         1717                       # number of ReadExReq misses
system.l2.ReadExReq_misses::total                1718                       # number of ReadExReq misses
system.l2.ReadExReq_miss_latency::.switch_cpus.data    133971500                       # number of ReadExReq miss cycles
system.l2.ReadExReq_miss_latency::total     133971500                       # number of ReadExReq miss cycles
system.l2.ReadExReq_accesses::.cpu.data             1                       # number of ReadExReq accesses(hits+misses)
system.l2.ReadExReq_accesses::.switch_cpus.data        19340                       # number of ReadExReq accesses(hits+misses)
system.l2.ReadExReq_accesses::total             19341                       # number of ReadExReq accesses(hits+misses)
system.l2.ReadExReq_miss_rate::.cpu.data            1                       # miss rate for ReadExReq accesses
system.l2.ReadExReq_miss_rate::.switch_cpus.data     0.088780                       # miss rate for ReadExReq accesses
system.l2.ReadExReq_miss_rate::total         0.088827                       # miss rate for ReadExReq accesses
system.l2.ReadExReq_avg_miss_latency::.switch_cpus.data 78026.499709                       # average ReadExReq miss latency
[...]
system.cpu.itb_walker_cache.blocked_cycles::no_targets            0                       # number of cycles access was blocked
system.cpu.itb_walker_cache.blocked::no_mshrs            0                       # number of cycles access was blocked
system.cpu.itb_walker_cache.blocked::no_targets            0                       # number of cycles access was blocked
system.cpu.itb_walker_cache.avg_blocked_cycles::no_mshrs          nan                       # average number of cycles each access was blocked
system.cpu.itb_walker_cache.avg_blocked_cycles::no_targets          nan                       # average number of cycles each access was blocked
system.cpu.itb_walker_cache.replacements            0                       # number of replacements
system.cpu.itb_walker_cache.tags.pwrStateResidencyTicks::UNDEFINED 81947098795000                       # Cumulative time (in ticks) in various power states
system.cpu.itb_walker_cache.tags.tagsinuse            0                       # Cycle average of tags in use
system.cpu.itb_walker_cache.tags.total_refs            0                       # Total number of references to valid blocks.
system.cpu.itb_walker_cache.tags.sampled_refs            0                       # Sample count of references to valid blocks.
system.cpu.itb_walker_cache.tags.avg_refs          nan                       # Average number of references to valid blocks.
system.cpu.itb_walker_cache.tags.warmup_cycle            0                       # Cycle when the warmup percentage was hit.
system.cpu.itb_walker_cache.tags.tag_accesses            0                       # Number of tag accesses
system.cpu.itb_walker_cache.tags.data_accesses            0                       # Number of data accesses
system.cpu.itb.walker.pwrStateResidencyTicks::UNDEFINED 81947098795000                       # Cumulative time (in ticks) in various power states
system.cpu.dtb_walker_cache.pwrStateResidencyTicks::UNDEFINED 81947098795000                       # Cumulative time (in ticks) in various power states
system.cpu.dtb_walker_cache.blocked_cycles::no_mshrs            0                       # number of cycles access was blocked
system.cpu.dtb_walker_cache.blocked_cycles::no_targets            0                       # number of cycles access was blocked
system.cpu.dtb_walker_cache.blocked::no_mshrs            0                       # number of cycles access was blocked
system.cpu.dtb_walker_cache.blocked::no_targets            0                       # number of cycles access was blocked
system.cpu.dtb_walker_cache.avg_blocked_cycles::no_mshrs          nan                       # average number of cycles each access was blocked
system.cpu.dtb_walker_cache.avg_blocked_cycles::no_targets          nan                       # average number of cycles each access was blocked
system.cpu.dtb_walker_cache.replacements            0                       # number of replacements
system.cpu.dtb_walker_cache.tags.pwrStateResidencyTicks::UNDEFINED 81947098795000                       # Cumulative time (in ticks) in various power states
system.cpu.dtb_walker_cache.tags.tagsinuse            0                       # Cycle average of tags in use
system.cpu.dtb_walker_cache.tags.total_refs            0                       # Total number of references to valid blocks.
system.cpu.dtb_walker_cache.tags.sampled_refs            0                       # Sample count of references to valid blocks.
system.cpu.dtb_walker_cache.tags.avg_refs          nan                       # Average number of references to valid blocks.
system.cpu.dtb_walker_cache.tags.warmup_cycle            0                       # Cycle when the warmup percentage was hit.
system.cpu.dtb_walker_cache.tags.tag_accesses            0                       # Number of tag accesses
system.cpu.dtb_walker_cache.tags.data_accesses            0                       # Number of data accesses
system.cpu.dcache.pwrStateResidencyTicks::UNDEFINED 81947098795000                       # Cumulative time (in ticks) in various power states
system.cpu.dcache.demand_hits::.cpu.data            1                       # number of demand (read+write) hits
system.cpu.dcache.demand_hits::.switch_cpus.data     18666414                       # number of demand (read+write) hits
system.cpu.dcache.demand_hits::total         18666415                       # number of demand (read+write) hits
system.cpu.dcache.overall_hits::.cpu.data            1                       # number of overall hits
system.cpu.dcache.overall_hits::.switch_cpus.data     18666414                       # number of overall hits
system.cpu.dcache.overall_hits::total        18666415                       # number of overall hits
system.cpu.dcache.demand_misses::.cpu.data            6                       # number of demand (read+write) misses
system.cpu.dcache.demand_misses::.switch_cpus.data       108421                       # number of demand (read+write) misses
system.cpu.dcache.demand_misses::total         108427                       # number of demand (read+write) misses
system.cpu.dcache.overall_misses::.cpu.data            6                       # number of overall misses
system.cpu.dcache.overall_misses::.switch_cpus.data       108421                       # number of overall misses
system.cpu.dcache.overall_misses::total        108427                       # number of overall misses
system.cpu.dcache.demand_miss_latency::.switch_cpus.data   1621747489                       # number of demand (read+write) miss cycles
system.cpu.dcache.demand_miss_latency::total   1621747489                       # number of demand (read+write) miss cycles
system.cpu.dcache.overall_miss_latency::.switch_cpus.data   1621747489                       # number of overall miss cycles
system.cpu.dcache.overall_miss_latency::total   1621747489                       # number of overall miss cycles
system.cpu.dcache.demand_accesses::.cpu.data            7                       # number of demand (read+write) accesses
system.cpu.dcache.demand_accesses::.switch_cpus.data     18774835                       # number of demand (read+write) accesses
system.cpu.dcache.demand_accesses::total     18774842                       # number of demand (read+write) accesses
system.cpu.dcache.overall_accesses::.cpu.data            7                       # number of overall (read+write) accesses
system.cpu.dcache.overall_accesses::.switch_cpus.data     18774835                       # number of overall (read+write) accesses
system.cpu.dcache.overall_accesses::total     18774842                       # number of overall (read+write) accesses
system.cpu.dcache.demand_miss_rate::.cpu.data     0.857143                       # miss rate for demand accesses
system.cpu.dcache.demand_miss_rate::.switch_cpus.data     0.005775                       # miss rate for demand accesses
system.cpu.dcache.demand_miss_rate::total     0.005775                       # miss rate for demand accesses
system.cpu.dcache.overall_miss_rate::.cpu.data     0.857143                       # miss rate for overall accesses
system.cpu.dcache.overall_miss_rate::.switch_cpus.data     0.005775                       # miss rate for overall accesses
system.cpu.dcache.overall_miss_rate::total     0.005775                       # miss rate for overall accesses
system.cpu.dcache.demand_avg_miss_latency::.switch_cpus.data 14957.872451                       # average overall miss latency
system.cpu.dcache.demand_avg_miss_latency::total 14957.044731                       # average overall miss latency
system.cpu.dcache.overall_avg_miss_latency::.switch_cpus.data 14957.872451                       # average overall miss latency
system.cpu.dcache.overall_avg_miss_latency::total 14957.044731                       # average overall miss latency
system.cpu.dcache.blocked_cycles::no_mshrs         5822                       # number of cycles access was blocked
system.cpu.dcache.blocked_cycles::no_targets          118                       # number of cycles access was blocked
system.cpu.dcache.blocked::no_mshrs               598                       # number of cycles access was blocked
system.cpu.dcache.blocked::no_targets               1                       # number of cycles access was blocked
system.cpu.dcache.avg_blocked_cycles::no_mshrs     9.735786                       # average number of cycles each access was blocked
system.cpu.dcache.avg_blocked_cycles::no_targets          118                       # average number of cycles each access was blocked
system.cpu.dcache.writebacks::.writebacks        81540                       # number of writebacks
system.cpu.dcache.writebacks::total             81540                       # number of writebacks
system.cpu.dcache.demand_mshr_hits::.switch_cpus.data         3682                       # number of demand (read+write) MSHR hits
system.cpu.dcache.demand_mshr_hits::total         3682                       # number of demand (read+write) MSHR hits
system.cpu.dcache.overall_mshr_hits::.switch_cpus.data         3682                       # number of overall MSHR hits
system.cpu.dcache.overall_mshr_hits::total         3682                       # number of overall MSHR hits
system.cpu.dcache.demand_mshr_misses::.switch_cpus.data       104739                       # number of demand (read+write) MSHR misses
system.cpu.dcache.demand_mshr_misses::total       104739                       # number of demand (read+write) MSHR misses
system.cpu.dcache.overall_mshr_misses::.switch_cpus.data       104739                       # number of overall MSHR misses
system.cpu.dcache.overall_mshr_misses::total       104739                       # number of overall MSHR misses
system.cpu.dcache.demand_mshr_miss_latency::.switch_cpus.data   1473276489                       # number of demand (read+write) MSHR miss cycles
system.cpu.dcache.demand_mshr_miss_latency::total   1473276489                       # number of demand (read+write) MSHR miss cycles
system.cpu.dcache.overall_mshr_miss_latency::.switch_cpus.data   1473276489                       # number of overall MSHR miss cycles
system.cpu.dcache.overall_mshr_miss_latency::total   1473276489                       # number of overall MSHR miss cycles
system.cpu.dcache.demand_mshr_miss_rate::.switch_cpus.data     0.005579                       # mshr miss rate for demand accesses
system.cpu.dcache.demand_mshr_miss_rate::total     0.005579                       # mshr miss rate for demand accesses
system.cpu.dcache.overall_mshr_miss_rate::.switch_cpus.data     0.005579                       # mshr miss rate for overall accesses
system.cpu.dcache.overall_mshr_miss_rate::total     0.005579                       # mshr miss rate for overall accesses
system.cpu.dcache.demand_avg_mshr_miss_latency::.switch_cpus.data 14066.169135                       # average overall mshr miss latency
system.cpu.dcache.demand_avg_mshr_miss_latency::total 14066.169135                       # average overall mshr miss latency
system.cpu.dcache.overall_avg_mshr_miss_latency::.switch_cpus.data 14066.169135                       # average overall mshr miss latency
system.cpu.dcache.overall_avg_mshr_miss_latency::total 14066.169135                       # average overall mshr miss latency
system.cpu.dcache.replacements                 103721                       # number of replacements
system.cpu.dcache.ReadReq_hits::.switch_cpus.data     13156609                       # number of ReadReq hits
system.cpu.dcache.ReadReq_hits::total        13156609                       # number of ReadReq hits
system.cpu.dcache.ReadReq_misses::.cpu.data            5                       # number of ReadReq misses
system.cpu.dcache.ReadReq_misses::.switch_cpus.data        28135                       # number of ReadReq misses
system.cpu.dcache.ReadReq_misses::total         28140                       # number of ReadReq misses
system.cpu.dcache.ReadReq_miss_latency::.switch_cpus.data    408544000                       # number of ReadReq miss cycles
system.cpu.dcache.ReadReq_miss_latency::total    408544000                       # number of ReadReq miss cycles
system.cpu.dcache.ReadReq_accesses::.cpu.data            5                       # number of ReadReq accesses(hits+misses)
system.cpu.dcache.ReadReq_accesses::.switch_cpus.data     13184744                       # number of ReadReq accesses(hits+misses)
system.cpu.dcache.ReadReq_accesses::total     13184749                       # number of ReadReq accesses(hits+misses)
system.cpu.dcache.ReadReq_miss_rate::.cpu.data            1                       # miss rate for ReadReq accesses
system.cpu.dcache.ReadReq_miss_rate::.switch_cpus.data     0.002134                       # miss rate for ReadReq accesses
system.cpu.dcache.ReadReq_miss_rate::total     0.002134                       # miss rate for ReadReq accesses
system.cpu.dcache.ReadReq_avg_miss_latency::.switch_cpus.data 14520.845921                       # average ReadReq miss latency
system.cpu.dcache.ReadReq_avg_miss_latency::total 14518.265814                       # average ReadReq miss latency
system.cpu.dcache.ReadReq_mshr_hits::.switch_cpus.data         3681                       # number of ReadReq MSHR hits
system.cpu.dcache.ReadReq_mshr_hits::total         3681                       # number of ReadReq MSHR hits
system.cpu.dcache.ReadReq_mshr_misses::.switch_cpus.data        24454                       # number of ReadReq MSHR misses
system.cpu.dcache.ReadReq_mshr_misses::total        24454                       # number of ReadReq MSHR misses
system.cpu.dcache.ReadReq_mshr_miss_latency::.switch_cpus.data    340395500                       # number of ReadReq MSHR miss cycles
system.cpu.dcache.ReadReq_mshr_miss_latency::total    340395500                       # number of ReadReq MSHR miss cycles
system.cpu.dcache.ReadReq_mshr_miss_rate::.switch_cpus.data     0.001855                       # mshr miss rate for ReadReq accesses
system.cpu.dcache.ReadReq_mshr_miss_rate::total     0.001855                       # mshr miss rate for ReadReq accesses
system.cpu.dcache.ReadReq_avg_mshr_miss_latency::.switch_cpus.data 13919.829067                       # average ReadReq mshr miss latency
system.cpu.dcache.ReadReq_avg_mshr_miss_latency::total 13919.829067                       # average ReadReq mshr miss latency
system.cpu.dcache.WriteReq_hits::.cpu.data            1                       # number of WriteReq hits
system.cpu.dcache.WriteReq_hits::.switch_cpus.data      5509805                       # number of WriteReq hits
system.cpu.dcache.WriteReq_hits::total        5509806                       # number of WriteReq hits
system.cpu.dcache.WriteReq_misses::.cpu.data            1                       # number of WriteReq misses
system.cpu.dcache.WriteReq_misses::.switch_cpus.data        80286                       # number of WriteReq misses
system.cpu.dcache.WriteReq_misses::total        80287                       # number of WriteReq misses
system.cpu.dcache.WriteReq_miss_latency::.switch_cpus.data   1213203489                       # number of WriteReq miss cycles
system.cpu.dcache.WriteReq_miss_latency::total   1213203489                       # number of WriteReq miss cycles
system.cpu.dcache.WriteReq_accesses::.cpu.data            2                       # number of WriteReq accesses(hits+misses)
system.cpu.dcache.WriteReq_accesses::.switch_cpus.data      5590091                       # number of WriteReq accesses(hits+misses)
system.cpu.dcache.WriteReq_accesses::total      5590093                       # number of WriteReq accesses(hits+misses)
system.cpu.dcache.WriteReq_miss_rate::.cpu.data     0.500000                       # miss rate for WriteReq accesses
system.cpu.dcache.WriteReq_miss_rate::.switch_cpus.data     0.014362                       # miss rate for WriteReq accesses
system.cpu.dcache.WriteReq_miss_rate::total     0.014362                       # miss rate for WriteReq accesses
system.cpu.dcache.WriteReq_avg_miss_latency::.switch_cpus.data 15111.021710                       # average WriteReq miss latency
system.cpu.dcache.WriteReq_avg_miss_latency::total 15110.833497                       # average WriteReq miss latency
system.cpu.dcache.WriteReq_mshr_hits::.switch_cpus.data            1                       # number of WriteReq MSHR hits
system.cpu.dcache.WriteReq_mshr_hits::total            1                       # number of WriteReq MSHR hits
system.cpu.dcache.WriteReq_mshr_misses::.switch_cpus.data        80285                       # number of WriteReq MSHR misses
system.cpu.dcache.WriteReq_mshr_misses::total        80285                       # number of WriteReq MSHR misses
system.cpu.dcache.WriteReq_mshr_miss_latency::.switch_cpus.data   1132880989                       # number of WriteReq MSHR miss cycles
system.cpu.dcache.WriteReq_mshr_miss_latency::total   1132880989                       # number of WriteReq MSHR miss cycles
system.cpu.dcache.WriteReq_mshr_miss_rate::.switch_cpus.data     0.014362                       # mshr miss rate for WriteReq accesses
system.cpu.dcache.WriteReq_mshr_miss_rate::total     0.014362                       # mshr miss rate for WriteReq accesses
system.cpu.dcache.WriteReq_avg_mshr_miss_latency::.switch_cpus.data 14110.742841                       # average WriteReq mshr miss latency
system.cpu.dcache.WriteReq_avg_mshr_miss_latency::total 14110.742841                       # average WriteReq mshr miss latency
system.cpu.dcache.tags.pwrStateResidencyTicks::UNDEFINED 81947098795000                       # Cumulative time (in ticks) in various power states
system.cpu.dcache.tags.tagsinuse             0.124120                       # Cycle average of tags in use
system.cpu.dcache.tags.total_refs            18771160                       # Total number of references to valid blocks.
system.cpu.dcache.tags.sampled_refs            104745                       # Sample count of references to valid blocks.
system.cpu.dcache.tags.avg_refs            179.208172                       # Average number of references to valid blocks.
system.cpu.dcache.tags.warmup_cycle      81937068258000                       # Cycle when the warmup percentage was hit.
system.cpu.dcache.tags.occ_blocks::.cpu.data     0.000371                       # Average occupied blocks per requestor
system.cpu.dcache.tags.occ_blocks::.switch_cpus.data     0.123749                       # Average occupied blocks per requestor
system.cpu.dcache.tags.occ_percent::.cpu.data     0.000000                       # Average percentage of cache occupancy
system.cpu.dcache.tags.occ_percent::.switch_cpus.data     0.000121                       # Average percentage of cache occupancy
system.cpu.dcache.tags.occ_percent::total     0.000121                       # Average percentage of cache occupancy
system.cpu.dcache.tags.occ_task_id_blocks::1024         1024                       # Occupied blocks per task id
system.cpu.dcache.tags.age_task_id_blocks_1024::0           54                       # Occupied blocks per task id
system.cpu.dcache.tags.age_task_id_blocks_1024::1          592                       # Occupied blocks per task id
system.cpu.dcache.tags.age_task_id_blocks_1024::2          339                       # Occupied blocks per task id
system.cpu.dcache.tags.age_task_id_blocks_1024::3           14                       # Occupied blocks per task id
system.cpu.dcache.tags.age_task_id_blocks_1024::4           25                       # Occupied blocks per task id
system.cpu.dcache.tags.occ_task_id_percent::1024            1                       # Percentage of cache occupancy per task id
system.cpu.dcache.tags.tag_accesses          37654429                       # Number of tag accesses
system.cpu.dcache.tags.data_accesses         37654429                       # Number of data accesses

---------- End Simulation Statistics   ----------
