
---------- Begin Simulation Statistics ----------
final_tick                               164614381355500                       # Number of ticks from beginning of simulation (restored from checkpoints and never reset)
host_inst_rate                                 497628                       # Simulator instruction rate (inst/s)
host_mem_usage                                 830860                       # Number of bytes of host memory used
host_op_rate                                   857904                       # Simulator op (including micro ops) rate (op/s)
host_seconds                                    20.10                       # Real time elapsed on the host
host_tick_rate                              485415859                       # Simulator tick rate (ticks/s)
sim_freq                                 1000000000000                       # Frequency of simulated ticks
sim_insts                                    10000001                       # Number of instructions simulated
sim_ops                                      17240038                       # Number of ops (including micro ops) simulated
sim_seconds                                  0.009755                       # Number of seconds simulated
sim_ticks                                  9754711750                       # Number of ticks simulated
system.cpu.branchPred.BTBCorrect                    0                       # Number of correct BTB predictions (this stat may not work properly.
system.cpu.branchPred.BTBHitPct                   nan                       # BTB Hit Percentage
system.cpu.branchPred.BTBHits                       0                       # Number of BTB hits
system.cpu.branchPred.BTBLookups                    0                       # Number of BTB lookups
system.cpu.branchPred.RASInCorrect                  0                       # Number of incorrect RAS predictions.
system.cpu.branchPred.condIncorrect                 0                       # Number of conditional branches incorrect
system.cpu.branchPred.condPredicted                 3                       # Number of conditional branches predicted
system.cpu.branchPred.indirectHits                  0                       # Number of indirect target hits.
system.cpu.branchPred.indirectLookups               0                       # Number of indirect predictor lookups.
system.cpu.branchPred.indirectMisses                0                       # Number of indirect misses.
system.cpu.branchPred.lookups                       4                       # Number of BP lookups
system.cpu.branchPred.usedRAS                       1                       # Number of times the RAS was used to get a target.
system.cpu.branchPredindirectMispredicted            0                       # Number of mispredicted indirect branches.
system.cpu.cc_regfile_reads                        10                       # number of cc regfile reads
system.cpu.cc_regfile_writes                        2                       # number of cc regfile writes
system.cpu.commit.amos                              0                       # Number of atomic instructions committed
system.cpu.commit.branchMispredicts                 4                       # The number of times a branch was mispredicted
system.cpu.commit.branches                          0                       # Number of branches committed
system.cpu.commit.bw_lim_events                     0                       # number cycles where commit BW limit reached
system.cpu.commit.commitSquashedInsts              44                       # The number of squashed insts skipped by commit
system.cpu.commit.committedInsts                    1                       # Number of instructions committed
system.cpu.commit.committedOps                      1                       # Number of ops (including micro ops) committed
system.cpu.commit.committed_per_cycle::samples           75                       # Number of insts commited each cycle
system.cpu.commit.committed_per_cycle::mean     0.013333                       # Number of insts commited each cycle
system.cpu.commit.committed_per_cycle::stdev     0.115470                       # Number of insts commited each cycle
system.cpu.commit.committed_per_cycle::underflows            0      0.00%      0.00% # Number of insts commited each cycle
system.cpu.commit.committed_per_cycle::0           74     98.67%     98.67% # Number of insts commited each cycle
system.cpu.commit.committed_per_cycle::1            1      1.33%    100.00% # Number of insts commited each cycle
system.cpu.commit.committed_per_cycle::2            0      0.00%    100.00% # Number of insts commited each cycle
system.cpu.commit.committed_per_cycle::3            0      0.00%    100.00% # Number of insts commited each cycle
system.cpu.commit.committed_per_cycle::4            0      0.00%    100.00% # Number of insts commited each cycle
system.cpu.commit.committed_per_cycle::5            0      0.00%    100.00% # Number of insts commited each cycle
system.cpu.commit.committed_per_cycle::6            0      0.00%    100.00% # Number of insts commited each cycle
system.cpu.commit.committed_per_cycle::7            0      0.00%    100.00% # Number of insts commited each cycle
system.cpu.commit.committed_per_cycle::8            0      0.00%    100.00% # Number of insts commited each cycle
system.cpu.commit.committed_per_cycle::overflows            0      0.00%    100.00% # Number of insts commited each cycle
system.cpu.commit.committed_per_cycle::min_value            0                       # Number of insts commited each cycle
system.cpu.commit.committed_per_cycle::max_value            1                       # Number of insts commited each cycle
system.cpu.commit.committed_per_cycle::total           75                       # Number of insts commited each cycle
system.cpu.commit.fp_insts                          0                       # Number of committed floating point instructions.
system.cpu.commit.function_calls                    0                       # Number of function calls committed.
system.cpu.commit.int_insts                         1                       # Number of committed integer instructions.
system.cpu.commit.loads                             1                       # Number of loads committed
system.cpu.commit.membars                           0                       # Number of memory barriers committed
system.cpu.commit.op_class_0::No_OpClass            0      0.00%      0.00% # Class of committed instruction
system.cpu.commit.op_class_0::IntAlu                0      0.00%      0.00% # Class of committed instruction
system.cpu.commit.op_class_0::IntMult               0      0.00%      0.00% # Class of committed instruction
system.cpu.commit.op_class_0::IntDiv                0      0.00%      0.00% # Class of committed instruction
system.cpu.commit.op_class_0::FloatAdd              0      0.00%      0.00% # Class of committed instruction
system.cpu.commit.op_class_0::FloatCmp              0      0.00%      0.00% # Class of committed instruction
system.cpu.commit.op_class_0::FloatCvt              0      0.00%      0.00% # Class of committed instruction
system.cpu.commit.op_class_0::FloatMult             0      0.00%      0.00% # Class of committed instruction
system.cpu.commit.op_class_0::FloatMultAcc            0      0.00%      0.00% # Class of committed instruction
system.cpu.commit.op_class_0::FloatDiv              0      0.00%      0.00% # Class of committed instruction
system.cpu.commit.op_class_0::FloatMisc             0      0.00%      0.00% # Class of committed instruction
system.cpu.commit.op_class_0::FloatSqrt             0      0.00%      0.00% # Class of committed instruction
system.cpu.commit.op_class_0::SimdAdd               0      0.00%      0.00% # Class of committed instruction
system.cpu.commit.op_class_0::SimdAddAcc            0      0.00%      0.00% # Class of committed instruction
system.cpu.commit.op_class_0::SimdAlu               0      0.00%      0.00% # Class of committed instruction
system.cpu.commit.op_class_0::SimdCmp               0      0.00%      0.00% # Class of committed instruction
system.cpu.commit.op_class_0::SimdCvt               0      0.00%      0.00% # Class of committed instruction
system.cpu.commit.op_class_0::SimdMisc              0      0.00%      0.00% # Class of committed instruction
system.cpu.commit.op_class_0::SimdMult              0      0.00%      0.00% # Class of committed instruction
system.cpu.commit.op_class_0::SimdMultAcc            0      0.00%      0.00% # Class of committed instruction
system.cpu.commit.op_class_0::SimdShift             0      0.00%      0.00% # Class of committed instruction
system.cpu.commit.op_class_0::SimdShiftAcc            0      0.00%      0.00% # Class of committed instruction
system.cpu.commit.op_class_0::SimdDiv               0      0.00%      0.00% # Class of committed instruction
system.cpu.commit.op_class_0::SimdSqrt              0      0.00%      0.00% # Class of committed instruction
system.cpu.commit.op_class_0::SimdFloatAdd            0      0.00%      0.00% # Class of committed instruction
system.cpu.commit.op_class_0::SimdFloatAlu            0      0.00%      0.00% # Class of committed instruction
system.cpu.commit.op_class_0::SimdFloatCmp            0      0.00%      0.00% # Class of committed instruction
system.cpu.commit.op_class_0::SimdFloatCvt            0      0.00%      0.00% # Class of committed instruction
system.cpu.commit.op_class_0::SimdFloatDiv            0      0.00%      0.00% # Class of committed instruction
system.cpu.commit.op_class_0::SimdFloatMisc            0      0.00%      0.00% # Class of committed instruction
system.cpu.commit.op_class_0::SimdFloatMult            0      0.00%      0.00% # Class of committed instruction
system.cpu.commit.op_class_0::SimdFloatMultAcc            0      0.00%      0.00% # Class of committed instruction
system.cpu.commit.op_class_0::SimdFloatSqrt            0      0.00%      0.00% # Class of committed instruction
system.cpu.commit.op_class_0::SimdReduceAdd            0      0.00%      0.00% # Class of committed instruction
system.cpu.commit.op_class_0::SimdReduceAlu            0      0.00%      0.00% # Class of committed instruction
system.cpu.commit.op_class_0::SimdReduceCmp            0      0.00%      0.00% # Class of committed instruction
system.cpu.commit.op_class_0::SimdFloatReduceAdd            0      0.00%      0.00% # Class of committed instruction
system.cpu.commit.op_class_0::SimdFloatReduceCmp            0      0.00%      0.00% # Class of committed instruction
system.cpu.commit.op_class_0::SimdAes               0      0.00%      0.00% # Class of committed instruction
system.cpu.commit.op_class_0::SimdAesMix            0      0.00%      0.00% # Class of committed instruction
system.cpu.commit.op_class_0::SimdSha1Hash            0      0.00%      0.00% # Class of committed instruction
system.cpu.commit.op_class_0::SimdSha1Hash2            0      0.00%      0.00% # Class of committed instruction
system.cpu.commit.op_class_0::SimdSha256Hash            0      0.00%      0.00% # Class of committed instruction
system.cpu.commit.op_class_0::SimdSha256Hash2            0      0.00%      0.00% # Class of committed instruction
system.cpu.commit.op_class_0::SimdShaSigma2            0      0.00%      0.00% # Class of committed instruction
system.cpu.commit.op_class_0::SimdShaSigma3            0      0.00%      0.00% # Class of committed instruction
system.cpu.commit.op_class_0::SimdPredAlu            0      0.00%      0.00% # Class of committed instruction
system.cpu.commit.op_class_0::MemRead               1    100.00%    100.00% # Class of committed instruction
system.cpu.commit.op_class_0::MemWrite              0      0.00%    100.00% # Class of committed instruction
system.cpu.commit.op_class_0::FloatMemRead            0      0.00%    100.00% # Class of committed instruction
system.cpu.commit.op_class_0::FloatMemWrite            0      0.00%    100.00% # Class of committed instruction
system.cpu.commit.op_class_0::IprAccess             0      0.00%    100.00% # Class of committed instruction
system.cpu.commit.op_class_0::InstPrefetch            0      0.00%    100.00% # Class of committed instruction
system.cpu.commit.op_class_0::total                 1                       # Class of committed instruction
system.cpu.commit.refs                              1                       # Number of memory references committed
system.cpu.commit.swp_count                         0                       # Number of s/w prefetches committed
system.cpu.commit.vec_insts                         0                       # Number of committed Vector instructions.
system.cpu.committedInsts                           1                       # Number of Instructions Simulated
system.cpu.committedOps                             1                       # Number of Ops (including micro ops) Simulated
system.cpu.cpi                             365.000000                       # CPI: Cycles Per Instruction
system.cpu.cpi_total                       365.000000                       # CPI: Total CPI of All Threads
system.cpu.decode.BlockedCycles                     5                       # Number of cycles decode is blocked
system.cpu.decode.DecodedInsts                     46                       # Number of instructions handled by decode
system.cpu.decode.IdleCycles                       65                       # Number of cycles decode is idle
system.cpu.decode.RunCycles                         4                       # Number of cycles decode is running
system.cpu.decode.SquashCycles                      5                       # Number of cycles decode is squashing
system.cpu.dtb.rdAccesses                          12                       # TLB accesses on read requests
system.cpu.dtb.rdMisses                             0                       # TLB misses on read requests
system.cpu.dtb.wrAccesses                           0                       # TLB accesses on write requests
system.cpu.dtb.wrMisses                             0                       # TLB misses on write requests
system.cpu.fetch.Branches                           4                       # Number of branches that fetch encountered
system.cpu.fetch.CacheLines                         2                       # Number of cache lines fetched
system.cpu.fetch.Cycles                             6                       # Number of cycles fetch has run and was not squashing or blocked
system.cpu.fetch.Insts                             18                       # Number of instructions fetch has processed
system.cpu.fetch.MiscStallCycles                    4                       # Number of cycles fetch has spent waiting on interrupts, or bad addresses, or out of MSHRs
system.cpu.fetch.PendingDrainCycles                10                       # Number of cycles fetch has spent waiting on pipes to drain
system.cpu.fetch.PendingTrapStallCycles            24                       # Number of stall cycles due to pending traps
system.cpu.fetch.SquashCycles                       9                       # Number of cycles fetch has spent squashing
system.cpu.fetch.branchRate                  0.010959                       # Number of branch fetches per cycle
system.cpu.fetch.icacheStallCycles                 37                       # Number of cycles fetch is stalled on an Icache miss
system.cpu.fetch.predictedBranches                  1                       # Number of branches that fetch has predicted taken
system.cpu.fetch.rate                        0.049315                       # Number of inst fetches per cycle
system.cpu.fetch.rateDist::samples                 85                       # Number of instructions fetched each cycle (Total)
system.cpu.fetch.rateDist::mean              0.482353                       # Number of instructions fetched each cycle (Total)
system.cpu.fetch.rateDist::stdev             1.816667                       # Number of instructions fetched each cycle (Total)
system.cpu.fetch.rateDist::underflows               0      0.00%      0.00% # Number of instructions fetched each cycle (Total)
system.cpu.fetch.rateDist::0                       79     92.94%     92.94% # Number of instructions fetched each cycle (Total)
system.cpu.fetch.rateDist::1                        0      0.00%     92.94% # Number of instructions fetched each cycle (Total)
system.cpu.fetch.rateDist::2                        0      0.00%     92.94% # Number of instructions fetched each cycle (Total)
system.cpu.fetch.rateDist::3                        0      0.00%     92.94% # Number of instructions fetched each cycle (Total)
system.cpu.fetch.rateDist::4                        1      1.18%     94.12% # Number of instructions fetched each cycle (Total)
system.cpu.fetch.rateDist::5                        1      1.18%     95.29% # Number of instructions fetched each cycle (Total)
system.cpu.fetch.rateDist::6                        0      0.00%     95.29% # Number of instructions fetched each cycle (Total)
system.cpu.fetch.rateDist::7                        0      0.00%     95.29% # Number of instructions fetched each cycle (Total)
system.cpu.fetch.rateDist::8                        4      4.71%    100.00% # Number of instructions fetched each cycle (Total)
system.cpu.fetch.rateDist::overflows                0      0.00%    100.00% # Number of instructions fetched each cycle (Total)
system.cpu.fetch.rateDist::min_value                0                       # Number of instructions fetched each cycle (Total)
system.cpu.fetch.rateDist::max_value                8                       # Number of instructions fetched each cycle (Total)
system.cpu.fetch.rateDist::total                   85                       # Number of instructions fetched each cycle (Total)
system.cpu.fp_regfile_reads                        56                       # number of floating regfile reads
system.cpu.idleCycles                             280                       # Total number of cycles that the CPU has spent unscheduled due to idling
system.cpu.iew.branchMispredicts                    5                       # Number of branch mispredicts detected at execute
system.cpu.iew.exec_branches                        1                       # Number of branches executed
system.cpu.iew.exec_nop                             0                       # number of nop insts executed
system.cpu.iew.exec_rate                     0.106849                       # Inst execution rate
system.cpu.iew.exec_refs                           19                       # number of memory reference insts executed
system.cpu.iew.exec_stores                          0                       # Number of stores executed
system.cpu.iew.exec_swp                             0                       # number of swp insts executed
system.cpu.iew.iewBlockCycles                       5                       # Number of cycles IEW is blocking
system.cpu.iew.iewDispLoadInsts                    12                       # Number of dispatched load instructions
system.cpu.iew.iewDispNonSpecInsts                  0                       # Number of dispatched non-speculative instructions
system.cpu.iew.iewDispSquashedInsts                 0                       # Number of squashed instructions skipped by dispatch
system.cpu.iew.iewDispStoreInsts                    1                       # Number of dispatched store instructions
system.cpu.iew.iewDispatchedInsts                  45                       # Number of instructions dispatched to IQ
system.cpu.iew.iewExecLoadInsts                    19                       # Number of load instructions executed
system.cpu.iew.iewExecSquashedInsts                 0                       # Number of squashed instructions skipped in execute
system.cpu.iew.iewExecutedInsts                    39                       # Number of executed instructions
system.cpu.iew.iewIQFullEvents                      0                       # Number of times the IQ has become full, causing a stall
system.cpu.iew.iewIdleCycles                        0                       # Number of cycles IEW is idle
system.cpu.iew.iewLSQFullEvents                     0                       # Number of times the LSQ has become full, causing a stall
system.cpu.iew.iewSquashCycles                      5                       # Number of cycles IEW is squashing
system.cpu.iew.iewUnblockCycles                     0                       # Number of cycles IEW is unblocking
system.cpu.iew.lsq.thread0.blockedLoads             0                       # Number of blocked loads due to partial load-store forwarding
system.cpu.iew.lsq.thread0.cacheBlocked             2                       # Number of times an access to memory failed due to the cache being blocked
system.cpu.iew.lsq.thread0.forwLoads                0                       # Number of loads that had data forwarded from stores
system.cpu.iew.lsq.thread0.ignoredResponses            0                       # Number of memory responses ignored because the instruction is squashed
system.cpu.iew.lsq.thread0.invAddrLoads             0                       # Number of loads ignored due to an invalid address
system.cpu.iew.lsq.thread0.invAddrSwpfs             0                       # Number of software prefetches ignored due to an invalid address
system.cpu.iew.lsq.thread0.memOrderViolation            0                       # Number of memory ordering violations
system.cpu.iew.lsq.thread0.rescheduledLoads            0                       # Number of loads that were rescheduled
system.cpu.iew.lsq.thread0.squashedLoads           11                       # Number of loads squashed
system.cpu.iew.lsq.thread0.squashedStores            1                       # Number of stores squashed
system.cpu.iew.memOrderViolationEvents              0                       # Number of memory order violations
system.cpu.iew.predictedNotTakenIncorrect            5                       # Number of branches that were predicted not taken incorrectly
system.cpu.iew.predictedTakenIncorrect              0                       # Number of branches that were predicted taken incorrectly
system.cpu.iew.wb_consumers                        21                       # num instructions consuming a value
system.cpu.iew.wb_count                            17                       # cumulative count of insts written-back
system.cpu.iew.wb_fanout                     0.666667                       # average fanout of values written-back
system.cpu.iew.wb_producers                        14                       # num instructions producing a value
system.cpu.iew.wb_rate                       0.046575                       # insts written-back per cycle
system.cpu.iew.wb_sent                             21                       # cumulative count of insts sent to commit
system.cpu.int_regfile_reads                       87                       # number of integer regfile reads
system.cpu.int_regfile_writes                      15                       # number of integer regfile writes
system.cpu.ipc                               0.002740                       # IPC: Instructions Per Cycle
system.cpu.ipc_total                         0.002740                       # IPC: Total IPC of All Threads
system.cpu.iq.FU_type_0::No_OpClass                 5     12.82%     12.82% # Type of FU issued
system.cpu.iq.FU_type_0::IntAlu                    15     38.46%     51.28% # Type of FU issued
system.cpu.iq.FU_type_0::IntMult                    0      0.00%     51.28% # Type of FU issued
system.cpu.iq.FU_type_0::IntDiv                     0      0.00%     51.28% # Type of FU issued
system.cpu.iq.FU_type_0::FloatAdd                   0      0.00%     51.28% # Type of FU issued
system.cpu.iq.FU_type_0::FloatCmp                   0      0.00%     51.28% # Type of FU issued
system.cpu.iq.FU_type_0::FloatCvt                   0      0.00%     51.28% # Type of FU issued
system.cpu.iq.FU_type_0::FloatMult                  0      0.00%     51.28% # Type of FU issued
system.cpu.iq.FU_type_0::FloatMultAcc               0      0.00%     51.28% # Type of FU issued
system.cpu.iq.FU_type_0::FloatDiv                   0      0.00%     51.28% # Type of FU issued
system.cpu.iq.FU_type_0::FloatMisc                  0      0.00%     51.28% # Type of FU issued
system.cpu.iq.FU_type_0::FloatSqrt                  0      0.00%     51.28% # Type of FU issued
system.cpu.iq.FU_type_0::SimdAdd                    0      0.00%     51.28% # Type of FU issued
system.cpu.iq.FU_type_0::SimdAddAcc                 0      0.00%     51.28% # Type of FU issued
system.cpu.iq.FU_type_0::SimdAlu                    0      0.00%     51.28% # Type of FU issued
system.cpu.iq.FU_type_0::SimdCmp                    0      0.00%     51.28% # Type of FU issued
system.cpu.iq.FU_type_0::SimdCvt                    0      0.00%     51.28% # Type of FU issued
system.cpu.iq.FU_type_0::SimdMisc                   0      0.00%     51.28% # Type of FU issued
system.cpu.iq.FU_type_0::SimdMult                   0      0.00%     51.28% # Type of FU issued
system.cpu.iq.FU_type_0::SimdMultAcc                0      0.00%     51.28% # Type of FU issued
system.cpu.iq.FU_type_0::SimdShift                  0      0.00%     51.28% # Type of FU issued
system.cpu.iq.FU_type_0::SimdShiftAcc               0      0.00%     51.28% # Type of FU issued
system.cpu.iq.FU_type_0::SimdDiv                    0      0.00%     51.28% # Type of FU issued
system.cpu.iq.FU_type_0::SimdSqrt                   0      0.00%     51.28% # Type of FU issued
system.cpu.iq.FU_type_0::SimdFloatAdd               0      0.00%     51.28% # Type of FU issued
system.cpu.iq.FU_type_0::SimdFloatAlu               0      0.00%     51.28% # Type of FU issued
system.cpu.iq.FU_type_0::SimdFloatCmp               0      0.00%     51.28% # Type of FU issued
system.cpu.iq.FU_type_0::SimdFloatCvt               0      0.00%     51.28% # Type of FU issued
system.cpu.iq.FU_type_0::SimdFloatDiv               0      0.00%     51.28% # Type of FU issued
system.cpu.iq.FU_type_0::SimdFloatMisc              0      0.00%     51.28% # Type of FU issued
system.cpu.iq.FU_type_0::SimdFloatMult              0      0.00%     51.28% # Type of FU issued
system.cpu.iq.FU_type_0::SimdFloatMultAcc            0      0.00%     51.28% # Type of FU issued
system.cpu.iq.FU_type_0::SimdFloatSqrt              0      0.00%     51.28% # Type of FU issued
system.cpu.iq.FU_type_0::SimdReduceAdd              0      0.00%     51.28% # Type of FU issued
system.cpu.iq.FU_type_0::SimdReduceAlu              0      0.00%     51.28% # Type of FU issued
system.cpu.iq.FU_type_0::SimdReduceCmp              0      0.00%     51.28% # Type of FU issued
system.cpu.iq.FU_type_0::SimdFloatReduceAdd            0      0.00%     51.28% # Type of FU issued
system.cpu.iq.FU_type_0::SimdFloatReduceCmp            0      0.00%     51.28% # Type of FU issued
system.cpu.iq.FU_type_0::SimdAes                    0      0.00%     51.28% # Type of FU issued
system.cpu.iq.FU_type_0::SimdAesMix                 0      0.00%     51.28% # Type of FU issued
system.cpu.iq.FU_type_0::SimdSha1Hash               0      0.00%     51.28% # Type of FU issued
system.cpu.iq.FU_type_0::SimdSha1Hash2              0      0.00%     51.28% # Type of FU issued
system.cpu.iq.FU_type_0::SimdSha256Hash             0      0.00%     51.28% # Type of FU issued
system.cpu.iq.FU_type_0::SimdSha256Hash2            0      0.00%     51.28% # Type of FU issued
system.cpu.iq.FU_type_0::SimdShaSigma2              0      0.00%     51.28% # Type of FU issued
system.cpu.iq.FU_type_0::SimdShaSigma3              0      0.00%     51.28% # Type of FU issued
system.cpu.iq.FU_type_0::SimdPredAlu                0      0.00%     51.28% # Type of FU issued
system.cpu.iq.FU_type_0::MemRead                   19     48.72%    100.00% # Type of FU issued
system.cpu.iq.FU_type_0::MemWrite                   0      0.00%    100.00% # Type of FU issued
system.cpu.iq.FU_type_0::FloatMemRead               0      0.00%    100.00% # Type of FU issued
system.cpu.iq.FU_type_0::FloatMemWrite              0      0.00%    100.00% # Type of FU issued
system.cpu.iq.FU_type_0::IprAccess                  0      0.00%    100.00% # Type of FU issued
system.cpu.iq.FU_type_0::InstPrefetch               0      0.00%    100.00% # Type of FU issued
system.cpu.iq.FU_type_0::total                     39                       # Type of FU issued
system.cpu.iq.fp_alu_accesses                       0                       # Number of floating point alu accesses
system.cpu.iq.fp_inst_queue_reads                   0                       # Number of floating instruction queue reads
system.cpu.iq.fp_inst_queue_wakeup_accesses            0                       # Number of floating instruction queue wakeup accesses
system.cpu.iq.fp_inst_queue_writes                  0                       # Number of floating instruction queue writes
system.cpu.iq.fu_busy_cnt                           1                       # FU busy when requested
system.cpu.iq.fu_busy_rate                   0.025641                       # FU busy rate (busy events/executed inst)
system.cpu.iq.fu_full::No_OpClass                   0      0.00%      0.00% # attempts to use FU when none available
system.cpu.iq.fu_full::IntAlu                       0      0.00%      0.00% # attempts to use FU when none available
system.cpu.iq.fu_full::IntMult                      0      0.00%      0.00% # attempts to use FU when none available
system.cpu.iq.fu_full::IntDiv                       0      0.00%      0.00% # attempts to use FU when none available
system.cpu.iq.fu_full::FloatAdd                     0      0.00%      0.00% # attempts to use FU when none available
system.cpu.iq.fu_full::FloatCmp                     0      0.00%      0.00% # attempts to use FU when none available
system.cpu.iq.fu_full::FloatCvt                     0      0.00%      0.00% # attempts to use FU when none available
system.cpu.iq.fu_full::FloatMult                    0      0.00%      0.00% # attempts to use FU when none available
system.cpu.iq.fu_full::FloatMultAcc                 0      0.00%      0.00% # attempts to use FU when none available
system.cpu.iq.fu_full::FloatDiv                     0      0.00%      0.00% # attempts to use FU when none available
system.cpu.iq.fu_full::FloatMisc                    0      0.00%      0.00% # attempts to use FU when none available
system.cpu.iq.fu_full::FloatSqrt                    0      0.00%      0.00% # attempts to use FU when none available
system.cpu.iq.fu_full::SimdAdd                      0      0.00%      0.00% # attempts to use FU when none available
system.cpu.iq.fu_full::SimdAddAcc                   0      0.00%      0.00% # attempts to use FU when none available
system.cpu.iq.fu_full::SimdAlu                      0      0.00%      0.00% # attempts to use FU when none available
system.cpu.iq.fu_full::SimdCmp                      0      0.00%      0.00% # attempts to use FU when none available
system.cpu.iq.fu_full::SimdCvt                      0      0.00%      0.00% # attempts to use FU when none available
system.cpu.iq.fu_full::SimdMisc                     0      0.00%      0.00% # attempts to use FU when none available
system.cpu.iq.fu_full::SimdMult                     0      0.00%      0.00% # attempts to use FU when none available
system.cpu.iq.fu_full::SimdMultAcc                  0      0.00%      0.00% # attempts to use FU when none available
system.cpu.iq.fu_full::SimdShift                    0      0.00%      0.00% # attempts to use FU when none available
system.cpu.iq.fu_full::SimdShiftAcc                 0      0.00%      0.00% # attempts to use FU when none available
system.cpu.iq.fu_full::SimdDiv                      0      0.00%      0.00% # attempts to use FU when none available
system.cpu.iq.fu_full::SimdSqrt                     0      0.00%      0.00% # attempts to use FU when none available
system.cpu.iq.fu_full::SimdFloatAdd                 0      0.00%      0.00% # attempts to use FU when none available
system.cpu.iq.fu_full::SimdFloatAlu                 0      0.00%      0.00% # attempts to use FU when none available
system.cpu.iq.fu_full::SimdFloatCmp                 0      0.00%      0.00% # attempts to use FU when none available
system.cpu.iq.fu_full::SimdFloatCvt                 0      0.00%      0.00% # attempts to use FU when none available
system.cpu.iq.fu_full::SimdFloatDiv                 0      0.00%      0.00% # attempts to use FU when none available
system.cpu.iq.fu_full::SimdFloatMisc                0      0.00%      0.00% # attempts to use FU when none available
system.cpu.iq.fu_full::SimdFloatMult                0      0.00%      0.00% # attempts to use FU when none available
system.cpu.iq.fu_full::SimdFloatMultAcc             0      0.00%      0.00% # attempts to use FU when none available
system.cpu.iq.fu_full::SimdFloatSqrt                0      0.00%      0.00% # attempts to use FU when none available
system.cpu.iq.fu_full::SimdReduceAdd                0      0.00%      0.00% # attempts to use FU when none available
system.cpu.iq.fu_full::SimdReduceAlu                0      0.00%      0.00% # attempts to use FU when none available
system.cpu.iq.fu_full::SimdReduceCmp                0      0.00%      0.00% # attempts to use FU when none available
system.cpu.iq.fu_full::SimdFloatReduceAdd            0      0.00%      0.00% # attempts to use FU when none available
system.cpu.iq.fu_full::SimdFloatReduceCmp            0      0.00%      0.00% # attempts to use FU when none available
system.cpu.iq.fu_full::SimdAes                      0      0.00%      0.00% # attempts to use FU when none available
system.cpu.iq.fu_full::SimdAesMix                   0      0.00%      0.00% # attempts to use FU when none available
system.cpu.iq.fu_full::SimdSha1Hash                 0      0.00%      0.00% # attempts to use FU when none available
system.cpu.iq.fu_full::SimdSha1Hash2                0      0.00%      0.00% # attempts to use FU when none available
system.cpu.iq.fu_full::SimdSha256Hash               0      0.00%      0.00% # attempts to use FU when none available
system.cpu.iq.fu_full::SimdSha256Hash2              0      0.00%      0.00% # attempts to use FU when none available
system.cpu.iq.fu_full::SimdShaSigma2                0      0.00%      0.00% # attempts to use FU when none available
system.cpu.iq.fu_full::SimdShaSigma3                0      0.00%      0.00% # attempts to use FU when none available
system.cpu.iq.fu_full::SimdPredAlu                  0      0.00%      0.00% # attempts to use FU when none available
system.cpu.iq.fu_full::MemRead                      1    100.00%    100.00% # attempts to use FU when none available
system.cpu.iq.fu_full::MemWrite                     0      0.00%    100.00% # attempts to use FU when none available
system.cpu.iq.fu_full::FloatMemRead                 0      0.00%    100.00% # attempts to use FU when none available
system.cpu.iq.fu_full::FloatMemWrite                0      0.00%    100.00% # attempts to use FU when none available
system.cpu.iq.fu_full::IprAccess                    0      0.00%    100.00% # attempts to use FU when none available
system.cpu.iq.fu_full::InstPrefetch                 0      0.00%    100.00% # attempts to use FU when none available
system.cpu.iq.int_alu_accesses                     35                       # Number of integer alu accesses
system.cpu.iq.int_inst_queue_reads                164                       # Number of integer instruction queue reads
system.cpu.iq.int_inst_queue_wakeup_accesses           17                       # Number of integer instruction queue wakeup accesses
system.cpu.iq.int_inst_queue_writes                89                       # Number of integer instruction queue writes
system.cpu.iq.iqInstsAdded                         45                       # Number of instructions added to the IQ (excludes non-spec)
system.cpu.iq.iqInstsIssued                        39                       # Number of instructions issued
system.cpu.iq.iqSquashedInstsExamined              44                       # Number of squashed instructions iterated over during squash; mainly for profiling
system.cpu.iq.iqSquashedOperandsExamined           79                       # Number of squashed operands that are examined and possibly removed from graph
system.cpu.iq.issued_per_cycle::samples            85                       # Number of insts issued each cycle
system.cpu.iq.issued_per_cycle::mean         0.458824                       # Number of insts issued each cycle
system.cpu.iq.issued_per_cycle::stdev        1.139684                       # Number of insts issued each cycle
system.cpu.iq.issued_per_cycle::underflows            0      0.00%      0.00% # Number of insts issued each cycle
system.cpu.iq.issued_per_cycle::0                  69     81.18%     81.18% # Number of insts issued each cycle
system.cpu.iq.issued_per_cycle::1                   5      5.88%     87.06% # Number of insts issued each cycle
system.cpu.iq.issued_per_cycle::2                   5      5.88%     92.94% # Number of insts issued each cycle
system.cpu.iq.issued_per_cycle::3                   2      2.35%     95.29% # Number of insts issued each cycle
system.cpu.iq.issued_per_cycle::4                   3      3.53%     98.82% # Number of insts issued each cycle
system.cpu.iq.issued_per_cycle::5                   0      0.00%     98.82% # Number of insts issued each cycle
system.cpu.iq.issued_per_cycle::6                   1      1.18%    100.00% # Number of insts issued each cycle
system.cpu.iq.issued_per_cycle::7                   0      0.00%    100.00% # Number of insts issued each cycle
system.cpu.iq.issued_per_cycle::8                   0      0.00%    100.00% # Number of insts issued each cycle
system.cpu.iq.issued_per_cycle::overflows            0      0.00%    100.00% # Number of insts issued each cycle
system.cpu.iq.issued_per_cycle::min_value            0                       # Number of insts issued each cycle
system.cpu.iq.issued_per_cycle::max_value            6                       # Number of insts issued each cycle
system.cpu.iq.issued_per_cycle::total              85                       # Number of insts issued each cycle
system.cpu.iq.rate                           0.106849                       # Inst issue rate
system.cpu.iq.vec_alu_accesses                      0                       # Number of vector alu accesses
system.cpu.iq.vec_inst_queue_reads                  0                       # Number of vector instruction queue reads
system.cpu.iq.vec_inst_queue_wakeup_accesses            0                       # Number of vector instruction queue wakeup accesses
system.cpu.iq.vec_inst_queue_writes                 0                       # Number of vector instruction queue writes
system.cpu.itb.rdAccesses                           0                       # TLB accesses on read requests
system.cpu.itb.rdMisses                             0                       # TLB misses on read requests
system.cpu.itb.wrAccesses                           7                       # TLB accesses on write requests
system.cpu.itb.wrMisses                             5                       # TLB misses on write requests
system.cpu.memDep0.conflictingLoads                 0                       # Number of conflicting loads.
system.cpu.memDep0.conflictingStores                0                       # Number of conflicting stores.
system.cpu.memDep0.insertedLoads                   12                       # Number of loads inserted to the mem dependence unit.
system.cpu.memDep0.insertedStores                   1                       # Number of stores inserted to the mem dependence unit.
system.cpu.misc_regfile_reads                      24                       # number of misc regfile reads
system.cpu.numCycles                              365                       # number of cpu cycles simulated
system.cpu.numWorkItemsCompleted                    0                       # number of work items this cpu completed
system.cpu.numWorkItemsStarted                      0                       # number of work items this cpu started
system.cpu.rename.BlockCycles                       5                       # Number of cycles rename is blocking
system.cpu.rename.CommittedMaps                     1                       # Number of HB maps that are committed
system.cpu.rename.IdleCycles                       66                       # Number of cycles rename is idle
system.cpu.rename.RenameLookups                   102                       # Number of register rename lookups that rename has made
system.cpu.rename.RenamedInsts                     45                       # Number of instructions processed by rename
system.cpu.rename.RenamedOperands                  43                       # Number of destination operands rename has renamed
system.cpu.rename.RunCycles                         3                       # Number of cycles rename is running
system.cpu.rename.SquashCycles                      5                       # Number of cycles rename is squashing
system.cpu.rename.UndoneMaps                       42                       # Number of HB maps that are undone due to squashing
system.cpu.rename.int_rename_lookups               67                       # Number of integer rename lookups
system.cpu.rename.serializeStallCycles              0                       # count of cycles rename stalled for serializing inst
system.cpu.rename.serializingInsts                  0                       # count of serializing insts renamed
system.cpu.rename.skidInsts                         0                       # count of insts added to the skid buffer
system.cpu.rename.tempSerializingInsts              0                       # count of temporary serializing insts renamed
system.cpu.rob.rob_reads                          119                       # The number of ROB reads
system.cpu.rob.rob_writes                         100                       # The number of ROB writes
system.cpu.timesIdled                               3                       # Number of times that the entire CPU went into an idle state and unscheduled itself
system.cpu.workload.numSyscalls                     0                       # Number of system calls
system.membus.snoop_filter.hit_multi_requests            0                       # Number of requests hitting in the snoop filter with multiple (>1) holders of the requested data.
system.membus.snoop_filter.hit_multi_snoops            0                       # Number of snoops hitting in the snoop filter with multiple (>1) holders of the requested data.
system.membus.snoop_filter.hit_single_requests       395467                       # Number of requests hitting in the snoop filter with a single holder of the requested data.
system.membus.snoop_filter.hit_single_snoops            0                       # Number of snoops hitting in the snoop filter with a single holder of the requested data.
system.membus.snoop_filter.tot_requests        807408                       # Total number of requests made to the snoop filter.
system.membus.snoop_filter.tot_snoops               0                       # Total number of snoops made to the snoop filter.
system.switch_cpus.Branches                   2476523                       # Number of branches fetched
system.switch_cpus.committedInsts            10000000                       # Number of instructions committed
system.switch_cpus.committedOps              17240037                       # Number of ops (including micro ops) committed
system.switch_cpus.dtb.rdAccesses             3454883                       # TLB accesses on read requests
system.switch_cpus.dtb.rdMisses                748078                       # TLB misses on read requests
system.switch_cpus.dtb.wrAccesses              634113                       # TLB accesses on write requests
system.switch_cpus.dtb.wrMisses                  9598                       # TLB misses on write requests
system.switch_cpus.idle_fraction             0.000826                       # Percentage of idle cycles
system.switch_cpus.itb.rdAccesses                   0                       # TLB accesses on read requests
system.switch_cpus.itb.rdMisses                     0                       # TLB misses on read requests
system.switch_cpus.itb.wrAccesses            12253267                       # TLB accesses on write requests
system.switch_cpus.itb.wrMisses                     3                       # TLB misses on write requests
system.switch_cpus.not_idle_fraction         0.999174                       # Percentage of non-idle cycles
system.switch_cpus.numCycles                 19493303                       # number of cpu cycles simulated
system.switch_cpus.numWorkItemsCompleted            0                       # number of work items this cpu completed
system.switch_cpus.numWorkItemsStarted              0                       # number of work items this cpu started
system.switch_cpus.num_busy_cycles       19477196.319845                       # Number of busy cycles
system.switch_cpus.num_cc_register_reads     12149282                       # number of times the CC registers were read
system.switch_cpus.num_cc_register_writes      7343752                       # number of times the CC registers were written
system.switch_cpus.num_conditional_control_insts      2284433                       # number of instructions that are conditional controls
system.switch_cpus.num_fp_alu_accesses              0                       # Number of float alu accesses
system.switch_cpus.num_fp_insts                     0                       # number of float instructions
system.switch_cpus.num_fp_register_reads            0                       # number of times the floating registers were read
system.switch_cpus.num_fp_register_writes            0                       # number of times the floating registers were written
system.switch_cpus.num_func_calls               11800                       # number of times a function call or return occured
system.switch_cpus.num_idle_cycles       16106.680155                       # Number of idle cycles
system.switch_cpus.num_int_alu_accesses      17177965                       # Number of integer alu accesses
system.switch_cpus.num_int_insts             17177965                       # number of integer instructions
system.switch_cpus.num_int_register_reads     33109122                       # number of times the integer registers were read
system.switch_cpus.num_int_register_writes     14068137                       # number of times the integer registers were written
system.switch_cpus.num_load_insts             3454883                       # Number of load instructions
system.switch_cpus.num_mem_refs               4088996                       # number of memory refs
system.switch_cpus.num_store_insts             634113                       # Number of store instructions
system.switch_cpus.num_vec_alu_accesses             0                       # Number of vector alu accesses
system.switch_cpus.num_vec_insts                    0                       # number of vector instructions
system.switch_cpus.num_vec_register_reads            0                       # number of times the vector registers were read
system.switch_cpus.num_vec_register_writes            0                       # number of times the vector registers were written
system.switch_cpus.op_class::No_OpClass         56255      0.33%      0.33% # Class of executed instruction
system.switch_cpus.op_class::IntAlu          13093978     75.95%     76.28% # Class of executed instruction
system.switch_cpus.op_class::IntMult              808      0.00%     76.28% # Class of executed instruction
system.switch_cpus.op_class::IntDiv                 0      0.00%     76.28% # Class of executed instruction
system.switch_cpus.op_class::FloatAdd               0      0.00%     76.28% # Class of executed instruction
system.switch_cpus.op_class::FloatCmp               0      0.00%     76.28% # Class of executed instruction
system.switch_cpus.op_class::FloatCvt               0      0.00%     76.28% # Class of executed instruction
system.switch_cpus.op_class::FloatMult              0      0.00%     76.28% # Class of executed instruction
system.switch_cpus.op_class::FloatMultAcc            0      0.00%     76.28% # Class of executed instruction
system.switch_cpus.op_class::FloatDiv               0      0.00%     76.28% # Class of executed instruction
system.switch_cpus.op_class::FloatMisc              0      0.00%     76.28% # Class of executed instruction
system.switch_cpus.op_class::FloatSqrt              0      0.00%     76.28% # Class of executed instruction
system.switch_cpus.op_class::SimdAdd                0      0.00%     76.28% # Class of executed instruction
system.switch_cpus.op_class::SimdAddAcc             0      0.00%     76.28% # Class of executed instruction
system.switch_cpus.op_class::SimdAlu                0      0.00%     76.28% # Class of executed instruction
system.switch_cpus.op_class::SimdCmp                0      0.00%     76.28% # Class of executed instruction
system.switch_cpus.op_class::SimdCvt                0      0.00%     76.28% # Class of executed instruction
system.switch_cpus.op_class::SimdMisc               0      0.00%     76.28% # Class of executed instruction
system.switch_cpus.op_class::SimdMult               0      0.00%     76.28% # Class of executed instruction
system.switch_cpus.op_class::SimdMultAcc            0      0.00%     76.28% # Class of executed instruction
system.switch_cpus.op_class::SimdShift              0      0.00%     76.28% # Class of executed instruction
system.switch_cpus.op_class::SimdShiftAcc            0      0.00%     76.28% # Class of executed instruction
system.switch_cpus.op_class::SimdDiv                0      0.00%     76.28% # Class of executed instruction
system.switch_cpus.op_class::SimdSqrt               0      0.00%     76.28% # Class of executed instruction
system.switch_cpus.op_class::SimdFloatAdd            0      0.00%     76.28% # Class of executed instruction
system.switch_cpus.op_class::SimdFloatAlu            0      0.00%     76.28% # Class of executed instruction
system.switch_cpus.op_class::SimdFloatCmp            0      0.00%     76.28% # Class of executed instruction
system.switch_cpus.op_class::SimdFloatCvt            0      0.00%     76.28% # Class of executed instruction
system.switch_cpus.op_class::SimdFloatDiv            0      0.00%     76.28% # Class of executed instruction
system.switch_cpus.op_class::SimdFloatMisc            0      0.00%     76.28% # Class of executed instruction
system.switch_cpus.op_class::SimdFloatMult            0      0.00%     76.28% # Class of executed instruction
system.switch_cpus.op_class::SimdFloatMultAcc            0      0.00%     76.28% # Class of executed instruction
system.switch_cpus.op_class::SimdFloatSqrt            0      0.00%     76.28% # Class of executed instruction
system.switch_cpus.op_class::SimdReduceAdd            0      0.00%     76.28% # Class of executed instruction
system.switch_cpus.op_class::SimdReduceAlu            0      0.00%     76.28% # Class of executed instruction
system.switch_cpus.op_class::SimdReduceCmp            0      0.00%     76.28% # Class of executed instruction
system.switch_cpus.op_class::SimdFloatReduceAdd            0      0.00%     76.28% # Class of executed instruction
system.switch_cpus.op_class::SimdFloatReduceCmp            0      0.00%     76.28% # Class of executed instruction
system.switch_cpus.op_class::SimdAes                0      0.00%     76.28% # Class of executed instruction
system.switch_cpus.op_class::SimdAesMix             0      0.00%     76.28% # Class of executed instruction
system.switch_cpus.op_class::SimdSha1Hash            0      0.00%     76.28% # Class of executed instruction
system.switch_cpus.op_class::SimdSha1Hash2            0      0.00%     76.28% # Class of executed instruction
system.switch_cpus.op_class::SimdSha256Hash            0      0.00%     76.28% # Class of executed instruction
system.switch_cpus.op_class::SimdSha256Hash2            0      0.00%     76.28% # Class of executed instruction
system.switch_cpus.op_class::SimdShaSigma2            0      0.00%     76.28% # Class of executed instruction
system.switch_cpus.op_class::SimdShaSigma3            0      0.00%     76.28% # Class of executed instruction
system.switch_cpus.op_class::SimdPredAlu            0      0.00%     76.28% # Class of executed instruction
system.switch_cpus.op_class::MemRead          3454883     20.04%     96.32% # Class of executed instruction
system.switch_cpus.op_class::MemWrite          634113      3.68%    100.00% # Class of executed instruction
system.switch_cpus.op_class::FloatMemRead            0      0.00%    100.00% # Class of executed instruction
system.switch_cpus.op_class::FloatMemWrite            0      0.00%    100.00% # Class of executed instruction
system.switch_cpus.op_class::IprAccess              0      0.00%    100.00% # Class of executed instruction
system.switch_cpus.op_class::InstPrefetch            0      0.00%    100.00% # Class of executed instruction
system.switch_cpus.op_class::total           17240037                       # Class of executed instruction
system.tol2bus.snoop_filter.hit_multi_requests            0                       # Number of requests hitting in the snoop filter with multiple (>1) holders of the requested data.
system.tol2bus.snoop_filter.hit_multi_snoops            0                       # Number of snoops hitting in the snoop filter with multiple (>1) holders of the requested data.
system.tol2bus.snoop_filter.hit_single_requests       950791                       # Number of requests hitting in the snoop filter with a single holder of the requested data.
system.tol2bus.snoop_filter.hit_single_snoops        78377                       # Number of snoops hitting in the snoop filter with a single holder of the requested data.
system.tol2bus.snoop_filter.tot_requests      1902663                       # Total number of requests made to the snoop filter.
system.tol2bus.snoop_filter.tot_snoops          78377                       # Total number of snoops made to the snoop filter.
system.membus.pwrStateResidencyTicks::UNDEFINED 164614381355500                       # Cumulative time (in ticks) in various power states
system.membus.trans_dist::ReadResp             407839                       # Transaction distribution
system.membus.trans_dist::WritebackDirty        54968                       # Transaction distribution
system.membus.trans_dist::CleanEvict           340499                       # Transaction distribution
system.membus.trans_dist::ReadExReq              4102                       # Transaction distribution
system.membus.trans_dist::ReadExResp             4102                       # Transaction distribution
system.membus.trans_dist::ReadSharedReq        407839                       # Transaction distribution
system.membus.pkt_count_system.l2.mem_side::system.mem_ctrls.port      1219349                       # Packet count per connected master and slave (bytes)
system.membus.pkt_count_system.l2.mem_side::total      1219349                       # Packet count per connected master and slave (bytes)
system.membus.pkt_count::total                1219349                       # Packet count per connected master and slave (bytes)
system.membus.pkt_size_system.l2.mem_side::system.mem_ctrls.port     29882176                       # Cumulative packet size per connected master and slave (bytes)
system.membus.pkt_size_system.l2.mem_side::total     29882176                       # Cumulative packet size per connected master and slave (bytes)
system.membus.pkt_size::total                29882176                       # Cumulative packet size per connected master and slave (bytes)
system.membus.snoops                                0                       # Total snoops (count)
system.membus.snoopTraffic                          0                       # Total snoop traffic (bytes)
system.membus.snoop_fanout::samples            411941                       # Request fanout histogram
system.membus.snoop_fanout::mean                    0                       # Request fanout histogram
system.membus.snoop_fanout::stdev                   0                       # Request fanout histogram
system.membus.snoop_fanout::underflows              0      0.00%      0.00% # Request fanout histogram
system.membus.snoop_fanout::0                  411941    100.00%    100.00% # Request fanout histogram
system.membus.snoop_fanout::1                       0      0.00%    100.00% # Request fanout histogram
system.membus.snoop_fanout::overflows               0      0.00%    100.00% # Request fanout histogram
system.membus.snoop_fanout::min_value               0                       # Request fanout histogram
system.membus.snoop_fanout::max_value               0                       # Request fanout histogram
system.membus.snoop_fanout::total              411941                       # Request fanout histogram
system.membus.reqLayer2.occupancy                8000                       # Layer occupancy (ticks)
system.membus.reqLayer2.utilization               0.0                       # Layer utilization (%)
system.membus.respLayer1.occupancy              36500                       # Layer occupancy (ticks)
system.membus.respLayer1.utilization              0.0                       # Layer utilization (%)
system.switch_cpus.numPwrStateTransitions            1                       # Number of power state transitions
system.switch_cpus.pwrStateResidencyTicks::UNDEFINED 164604626643750                       # Cumulative time (in ticks) in various power states
system.switch_cpus.pwrStateResidencyTicks::OFF   9754711750                       # Cumulative time (in ticks) in various power states
system.switch_cpus.dtb.walker.pwrStateResidencyTicks::UNDEFINED 164614381355500                       # Cumulative time (in ticks) in various power states
system.switch_cpus.itb.walker.pwrStateResidencyTicks::UNDEFINED 164614381355500                       # Cumulative time (in ticks) in various power states
system.tol2bus.pwrStateResidencyTicks::UNDEFINED 164614381355500                       # Cumulative time (in ticks) in various power states
system.tol2bus.trans_dist::ReadResp            930691                       # Transaction distribution
system.tol2bus.trans_dist::WritebackDirty       382462                       # Transaction distribution
system.tol2bus.trans_dist::CleanEvict          568329                       # Transaction distribution
system.tol2bus.trans_dist::ReadExReq            21181                       # Transaction distribution
system.tol2bus.trans_dist::ReadExResp           21181                       # Transaction distribution
system.tol2bus.trans_dist::ReadCleanReq            57                       # Transaction distribution
system.tol2bus.trans_dist::ReadSharedReq       930634                       # Transaction distribution
system.tol2bus.pkt_count_system.cpu.icache.mem_side::system.l2.cpu_side          114                       # Packet count per connected master and slave (bytes)
system.tol2bus.pkt_count_system.cpu.dcache.mem_side::system.l2.cpu_side      2854421                       # Packet count per connected master and slave (bytes)
system.tol2bus.pkt_count::total               2854535                       # Packet count per connected master and slave (bytes)
system.tol2bus.pkt_size_system.cpu.icache.mem_side::system.l2.cpu_side         3648                       # Cumulative packet size per connected master and slave (bytes)
system.tol2bus.pkt_size_system.cpu.dcache.mem_side::system.l2.cpu_side     85393728                       # Cumulative packet size per connected master and slave (bytes)
system.tol2bus.pkt_size::total               85397376                       # Cumulative packet size per connected master and slave (bytes)
system.tol2bus.snoops                          401260                       # Total snoops (count)
system.tol2bus.snoopTraffic                   3517952                       # Total snoop traffic (bytes)
system.tol2bus.snoop_fanout::samples          1353132                       # Request fanout histogram
system.tol2bus.snoop_fanout::mean            0.057923                       # Request fanout histogram
system.tol2bus.snoop_fanout::stdev           0.233597                       # Request fanout histogram
system.tol2bus.snoop_fanout::underflows             0      0.00%      0.00% # Request fanout histogram
system.tol2bus.snoop_fanout::0                1274755     94.21%     94.21% # Request fanout histogram
system.tol2bus.snoop_fanout::1                  78377      5.79%    100.00% # Request fanout histogram
system.tol2bus.snoop_fanout::2                      0      0.00%    100.00% # Request fanout histogram
system.tol2bus.snoop_fanout::3                      0      0.00%    100.00% # Request fanout histogram
system.tol2bus.snoop_fanout::4                      0      0.00%    100.00% # Request fanout histogram
system.tol2bus.snoop_fanout::overflows              0      0.00%    100.00% # Request fanout histogram
system.tol2bus.snoop_fanout::min_value              0                       # Request fanout histogram
system.tol2bus.snoop_fanout::max_value              1                       # Request fanout histogram
system.tol2bus.snoop_fanout::total            1353132                       # Request fanout histogram
system.tol2bus.reqLayer0.occupancy               3500                       # Layer occupancy (ticks)
system.tol2bus.reqLayer0.utilization              0.0                       # Layer utilization (%)
system.tol2bus.respLayer1.occupancy              7500                       # Layer occupancy (ticks)
system.tol2bus.respLayer1.utilization             0.0                       # Layer utilization (%)
system.tol2bus.respLayer0.occupancy              3000                       # Layer occupancy (ticks)
system.tol2bus.respLayer0.utilization             0.0                       # Layer utilization (%)
system.voltage_domain.voltage                       1                       # Voltage in Volts
system.clk_domain.clock                          1000                       # Clock period in ticks
system.l2.pwrStateResidencyTicks::UNDEFINED 164614381355500                       # Cumulative time (in ticks) in various power states
system.l2.demand_hits::.switch_cpus.data       539931                       # number of demand (read+write) hits
system.l2.demand_hits::total                   539931                       # number of demand (read+write) hits
system.l2.overall_hits::.switch_cpus.data       539931                       # number of overall hits
system.l2.overall_hits::total                  539931                       # number of overall hits
system.l2.demand_misses::.cpu.inst                  2                       # number of demand (read+write) misses
system.l2.demand_misses::.cpu.data                  5                       # number of demand (read+write) misses
system.l2.demand_misses::.switch_cpus.inst           55                       # number of demand (read+write) misses
system.l2.demand_misses::.switch_cpus.data       411879                       # number of demand (read+write) misses
system.l2.demand_misses::total                 411941                       # number of demand (read+write) misses
system.l2.overall_misses::.cpu.inst                 2                       # number of overall misses
system.l2.overall_misses::.cpu.data                 5                       # number of overall misses
system.l2.overall_misses::.switch_cpus.inst           55                       # number of overall misses
system.l2.overall_misses::.switch_cpus.data       411879                       # number of overall misses
system.l2.overall_misses::total                411941                       # number of overall misses
system.l2.demand_miss_latency::.cpu.inst       154000                       # number of demand (read+write) miss cycles
system.l2.demand_miss_latency::.cpu.data       490000                       # number of demand (read+write) miss cycles
system.l2.demand_miss_latency::total           644000                       # number of demand (read+write) miss cycles
system.l2.overall_miss_latency::.cpu.inst       154000                       # number of overall miss cycles
system.l2.overall_miss_latency::.cpu.data       490000                       # number of overall miss cycles
system.l2.overall_miss_latency::total          644000                       # number of overall miss cycles
system.l2.demand_accesses::.cpu.inst                2                       # number of demand (read+write) accesses
system.l2.demand_accesses::.cpu.data                5                       # number of demand (read+write) accesses
system.l2.demand_accesses::.switch_cpus.inst           55                       # number of demand (read+write) accesses
system.l2.demand_accesses::.switch_cpus.data       951810                       # number of demand (read+write) accesses
system.l2.demand_accesses::total               951872                       # number of demand (read+write) accesses
system.l2.overall_accesses::.cpu.inst               2                       # number of overall (read+write) accesses
system.l2.overall_accesses::.cpu.data               5                       # number of overall (read+write) accesses
system.l2.overall_accesses::.switch_cpus.inst           55                       # number of overall (read+write) accesses
system.l2.overall_accesses::.switch_cpus.data       951810                       # number of overall (read+write) accesses
system.l2.overall_accesses::total              951872                       # number of overall (read+write) accesses
system.l2.demand_miss_rate::.cpu.inst               1                       # miss rate for demand accesses
system.l2.demand_miss_rate::.cpu.data               1                       # miss rate for demand accesses
system.l2.demand_miss_rate::.switch_cpus.inst            1                       # miss rate for demand accesses
system.l2.demand_miss_rate::.switch_cpus.data     0.432732                       # miss rate for demand accesses
system.l2.demand_miss_rate::total            0.432769                       # miss rate for demand accesses
system.l2.overall_miss_rate::.cpu.inst              1                       # miss rate for overall accesses
system.l2.overall_miss_rate::.cpu.data              1                       # miss rate for overall accesses
system.l2.overall_miss_rate::.switch_cpus.inst            1                       # miss rate for overall accesses
system.l2.overall_miss_rate::.switch_cpus.data     0.432732                       # miss rate for overall accesses
system.l2.overall_miss_rate::total           0.432769                       # miss rate for overall accesses
system.l2.demand_avg_miss_latency::.cpu.inst        77000                       # average overall miss latency
system.l2.demand_avg_miss_latency::.cpu.data        98000                       # average overall miss latency
system.l2.demand_avg_miss_latency::total     1.563331                       # average overall miss latency
system.l2.overall_avg_miss_latency::.cpu.inst        77000                       # average overall miss latency
system.l2.overall_avg_miss_latency::.cpu.data        98000                       # average overall miss latency
system.l2.overall_avg_miss_latency::total     1.563331                       # average overall miss latency
system.l2.blocked_cycles::no_mshrs                  0                       # number of cycles access was blocked
system.l2.blocked_cycles::no_targets                0                       # number of cycles access was blocked
system.l2.blocked::no_mshrs                         0                       # number of cycles access was blocked
system.l2.blocked::no_targets                       0                       # number of cycles access was blocked
system.l2.avg_blocked_cycles::no_mshrs            nan                       # average number of cycles each access was blocked
system.l2.avg_blocked_cycles::no_targets          nan                       # average number of cycles each access was blocked
system.l2.writebacks::.writebacks               54968                       # number of writebacks
system.l2.writebacks::total                     54968                       # number of writebacks
system.l2.demand_mshr_misses::.cpu.inst             2                       # number of demand (read+write) MSHR misses
system.l2.demand_mshr_misses::.cpu.data             5                       # number of demand (read+write) MSHR misses
system.l2.demand_mshr_misses::total                 7                       # number of demand (read+write) MSHR misses
system.l2.overall_mshr_misses::.cpu.inst            2                       # number of overall MSHR misses
system.l2.overall_mshr_misses::.cpu.data            5                       # number of overall MSHR misses
system.l2.overall_mshr_misses::total                7                       # number of overall MSHR misses
system.l2.demand_mshr_miss_latency::.cpu.inst       134000                       # number of demand (read+write) MSHR miss cycles
system.l2.demand_mshr_miss_latency::.cpu.data       440000                       # number of demand (read+write) MSHR miss cycles
system.l2.demand_mshr_miss_latency::total       574000                       # number of demand (read+write) MSHR miss cycles
system.l2.overall_mshr_miss_latency::.cpu.inst       134000                       # number of overall MSHR miss cycles
system.l2.overall_mshr_miss_latency::.cpu.data       440000                       # number of overall MSHR miss cycles
system.l2.overall_mshr_miss_latency::total       574000                       # number of overall MSHR miss cycles
system.l2.demand_mshr_miss_rate::.cpu.inst            1                       # mshr miss rate for demand accesses
system.l2.demand_mshr_miss_rate::.cpu.data            1                       # mshr miss rate for demand accesses
system.l2.demand_mshr_miss_rate::total       0.000007                       # mshr miss rate for demand accesses
system.l2.overall_mshr_miss_rate::.cpu.inst            1                       # mshr miss rate for overall accesses
system.l2.overall_mshr_miss_rate::.cpu.data            1                       # mshr miss rate for overall accesses
system.l2.overall_mshr_miss_rate::total      0.000007                       # mshr miss rate for overall accesses
system.l2.demand_avg_mshr_miss_latency::.cpu.inst        67000                       # average overall mshr miss latency
system.l2.demand_avg_mshr_miss_latency::.cpu.data        88000                       # average overall mshr miss latency
system.l2.demand_avg_mshr_miss_latency::total        82000                       # average overall mshr miss latency
system.l2.overall_avg_mshr_miss_latency::.cpu.inst        67000                       # average overall mshr miss latency
system.l2.overall_avg_mshr_miss_latency::.cpu.data        88000                       # average overall mshr miss latency
system.l2.overall_avg_mshr_miss_latency::total        82000                       # average overall mshr miss latency
system.l2.replacements                         401260                       # number of replacements
system.l2.WritebackDirty_hits::.writebacks       382462                       # number of WritebackDirty hits
system.l2.WritebackDirty_hits::total           382462                       # number of WritebackDirty hits
system.l2.WritebackDirty_accesses::.writebacks       382462                       # number of WritebackDirty accesses(hits+misses)
system.l2.WritebackDirty_accesses::total       382462                       # number of WritebackDirty accesses(hits+misses)
system.l2.ReadExReq_hits::.switch_cpus.data        17079                       # number of ReadExReq hits
system.l2.ReadExReq_hits::total                 17079                       # number of ReadExReq hits
system.l2.ReadExReq_misses::.switch_cpus.data         4102                       # number of ReadExReq misses
system.l2.ReadExReq_misses::total                4102                       # number of ReadExReq misses
system.l2.ReadExReq_accesses::.switch_cpus.data        21181                       # number of ReadExReq accesses(hits+misses)
system.l2.ReadExReq_accesses::total             21181                       # number of ReadExReq accesses(hits+misses)
system.l2.ReadExReq_miss_rate::.switch_cpus.data     0.193664                       # miss rate for ReadExReq accesses
system.l2.ReadExReq_miss_rate::total         0.193664                       # miss rate for ReadExReq accesses
system.l2.ReadCleanReq_misses::.cpu.inst            2                       # number of ReadCleanReq misses
system.l2.ReadCleanReq_misses::.switch_cpus.inst           55                       # number of ReadCleanReq misses
system.l2.ReadCleanReq_misses::total               57                       # number of ReadCleanReq misses
system.l2.ReadCleanReq_miss_latency::.cpu.inst       154000                       # number of ReadCleanReq miss cycles
system.l2.ReadCleanReq_miss_latency::total       154000                       # number of ReadCleanReq miss cycles
system.l2.ReadCleanReq_accesses::.cpu.inst            2                       # number of ReadCleanReq accesses(hits+misses)
system.l2.ReadCleanReq_accesses::.switch_cpus.inst           55                       # number of ReadCleanReq accesses(hits+misses)
system.l2.ReadCleanReq_accesses::total             57                       # number of ReadCleanReq accesses(hits+misses)
system.l2.ReadCleanReq_miss_rate::.cpu.inst            1                       # miss rate for ReadCleanReq accesses
system.l2.ReadCleanReq_miss_rate::.switch_cpus.inst            1                       # miss rate for ReadCleanReq accesses
system.l2.ReadCleanReq_miss_rate::total             1                       # miss rate for ReadCleanReq accesses
system.l2.ReadCleanReq_avg_miss_latency::.cpu.inst        77000                       # average ReadCleanReq miss latency
system.l2.ReadCleanReq_avg_miss_latency::total  2701.754386                       # average ReadCleanReq miss latency
system.l2.ReadCleanReq_mshr_misses::.cpu.inst            2                       # number of ReadCleanReq MSHR misses
system.l2.ReadCleanReq_mshr_misses::total            2                       # number of ReadCleanReq MSHR misses
system.l2.ReadCleanReq_mshr_miss_latency::.cpu.inst       134000                       # number of ReadCleanReq MSHR miss cycles
system.l2.ReadCleanReq_mshr_miss_latency::total       134000                       # number of ReadCleanReq MSHR miss cycles
system.l2.ReadCleanReq_mshr_miss_rate::.cpu.inst            1                       # mshr miss rate for ReadCleanReq accesses
system.l2.ReadCleanReq_mshr_miss_rate::total     0.035088                       # mshr miss rate for ReadCleanReq accesses
system.l2.ReadCleanReq_avg_mshr_miss_latency::.cpu.inst        67000                       # average ReadCleanReq mshr miss latency
system.l2.ReadCleanReq_avg_mshr_miss_latency::total        67000                       # average ReadCleanReq mshr miss latency
system.l2.ReadSharedReq_hits::.switch_cpus.data       522852                       # number of ReadSharedReq hits
system.l2.ReadSharedReq_hits::total            522852                       # number of ReadSharedReq hits
system.l2.ReadSharedReq_misses::.cpu.data            5                       # number of ReadSharedReq misses
system.l2.ReadSharedReq_misses::.switch_cpus.data       407777                       # number of ReadSharedReq misses
system.l2.ReadSharedReq_misses::total          407782                       # number of ReadSharedReq misses
system.l2.ReadSharedReq_miss_latency::.cpu.data       490000                       # number of ReadSharedReq miss cycles
system.l2.ReadSharedReq_miss_latency::total       490000                       # number of ReadSharedReq miss cycles
system.l2.ReadSharedReq_accesses::.cpu.data            5                       # number of ReadSharedReq accesses(hits+misses)
system.l2.ReadSharedReq_accesses::.switch_cpus.data       930629                       # number of ReadSharedReq accesses(hits+misses)
system.l2.ReadSharedReq_accesses::total        930634                       # number of ReadSharedReq accesses(hits+misses)
system.l2.ReadSharedReq_miss_rate::.cpu.data            1                       # miss rate for ReadSharedReq accesses
system.l2.ReadSharedReq_miss_rate::.switch_cpus.data     0.438174                       # miss rate for ReadSharedReq accesses
system.l2.ReadSharedReq_miss_rate::total     0.438177                       # miss rate for ReadSharedReq accesses
system.l2.ReadSharedReq_avg_miss_latency::.cpu.data        98000                       # average ReadSharedReq miss latency
system.l2.ReadSharedReq_avg_miss_latency::total     1.201622                       # average ReadSharedReq miss latency
system.l2.ReadSharedReq_mshr_misses::.cpu.data            5                       # number of ReadSharedReq MSHR misses
system.l2.ReadSharedReq_mshr_misses::total            5                       # number of ReadSharedReq MSHR misses
system.l2.ReadSharedReq_mshr_miss_latency::.cpu.data       440000                       # number of ReadSharedReq MSHR miss cycles
system.l2.ReadSharedReq_mshr_miss_latency::total       440000                       # number of ReadSharedReq MSHR miss cycles
system.l2.ReadSharedReq_mshr_miss_rate::.cpu.data            1                       # mshr miss rate for ReadSharedReq accesses
system.l2.ReadSharedReq_mshr_miss_rate::total     0.000005                       # mshr miss rate for ReadSharedReq accesses
system.l2.ReadSharedReq_avg_mshr_miss_latency::.cpu.data        88000                       # average ReadSharedReq mshr miss latency
system.l2.ReadSharedReq_avg_mshr_miss_latency::total        88000                       # average ReadSharedReq mshr miss latency
system.l2.tags.pwrStateResidencyTicks::UNDEFINED 164614381355500                       # Cumulative time (in ticks) in various power states
system.l2.tags.tagsinuse                 15977.233995                       # Cycle average of tags in use
system.l2.tags.total_refs                     1555601                       # Total number of references to valid blocks.
system.l2.tags.sampled_refs                    401260                       # Sample count of references to valid blocks.
system.l2.tags.avg_refs                      3.876791                       # Average number of references to valid blocks.
system.l2.tags.warmup_cycle              164604626720000                       # Cycle when the warmup percentage was hit.
system.l2.tags.occ_blocks::.writebacks     218.343300                       # Average occupied blocks per requestor
system.l2.tags.occ_blocks::.cpu.inst         0.110913                       # Average occupied blocks per requestor
system.l2.tags.occ_blocks::.cpu.data         0.669202                       # Average occupied blocks per requestor
system.l2.tags.occ_blocks::.switch_cpus.inst     1.500641                       # Average occupied blocks per requestor
system.l2.tags.occ_blocks::.switch_cpus.data 15756.609940                       # Average occupied blocks per requestor
system.l2.tags.occ_percent::.writebacks      0.013327                       # Average percentage of cache occupancy
[...]
system.mem_ctrls.rank1.preEnergy                    0                       # Energy for precharge commands per rank (pJ)
system.mem_ctrls.rank1.readEnergy                   0                       # Energy for read commands per rank (pJ)
system.mem_ctrls.rank1.writeEnergy                  0                       # Energy for write commands per rank (pJ)
system.mem_ctrls.rank1.refreshEnergy                0                       # Energy for refresh commands per rank (pJ)
system.mem_ctrls.rank1.actBackEnergy                0                       # Energy for active background per rank (pJ)
system.mem_ctrls.rank1.preBackEnergy      11240482080                       # Energy for precharge background per rank (pJ)
system.mem_ctrls.rank1.actPowerDownEnergy            0                       # Energy for active power-down per rank (pJ)
system.mem_ctrls.rank1.prePowerDownEnergy            0                       # Energy for precharge power-down per rank (pJ)
system.mem_ctrls.rank1.selfRefreshEnergy            0                       # Energy for self refresh per rank (pJ)
system.mem_ctrls.rank1.totalEnergy        11240482080                       # Total energy per rank (pJ)
system.mem_ctrls.rank1.averagePower        384.000003                       # Core power per rank (mW)
system.mem_ctrls.rank1.totalIdleTime                0                       # Total Idle time Per DRAM Rank
system.mem_ctrls.rank1.memoryStateTime::IDLE  29272088500                       # Time in different power states
system.mem_ctrls.rank1.memoryStateTime::REF            0                       # Time in different power states
system.mem_ctrls.rank1.memoryStateTime::SREF            0                       # Time in different power states
system.mem_ctrls.rank1.memoryStateTime::PRE_PDN            0                       # Time in different power states
system.mem_ctrls.rank1.memoryStateTime::ACT            0                       # Time in different power states
system.mem_ctrls.rank1.memoryStateTime::ACT_PDN            0                       # Time in different power states
system.mem_ctrls.rank0.actEnergy                    0                       # Energy for activate commands per rank (pJ)
system.mem_ctrls.rank0.preEnergy                    0                       # Energy for precharge commands per rank (pJ)
system.mem_ctrls.rank0.readEnergy                   0                       # Energy for read commands per rank (pJ)
system.mem_ctrls.rank0.writeEnergy                  0                       # Energy for write commands per rank (pJ)
system.mem_ctrls.rank0.refreshEnergy                0                       # Energy for refresh commands per rank (pJ)
system.mem_ctrls.rank0.actBackEnergy                0                       # Energy for active background per rank (pJ)
system.mem_ctrls.rank0.preBackEnergy      11240482080                       # Energy for precharge background per rank (pJ)
system.mem_ctrls.rank0.actPowerDownEnergy            0                       # Energy for active power-down per rank (pJ)
system.mem_ctrls.rank0.prePowerDownEnergy            0                       # Energy for precharge power-down per rank (pJ)
system.mem_ctrls.rank0.selfRefreshEnergy            0                       # Energy for self refresh per rank (pJ)
system.mem_ctrls.rank0.totalEnergy        11240482080                       # Total energy per rank (pJ)
system.mem_ctrls.rank0.averagePower        384.000003                       # Core power per rank (mW)
system.mem_ctrls.rank0.totalIdleTime                0                       # Total Idle time Per DRAM Rank
system.mem_ctrls.rank0.memoryStateTime::IDLE  29272088500                       # Time in different power states
system.mem_ctrls.rank0.memoryStateTime::REF            0                       # Time in different power states
system.mem_ctrls.rank0.memoryStateTime::SREF            0                       # Time in different power states
system.mem_ctrls.rank0.memoryStateTime::PRE_PDN            0                       # Time in different power states
system.mem_ctrls.rank0.memoryStateTime::ACT            0                       # Time in different power states
system.mem_ctrls.rank0.memoryStateTime::ACT_PDN            0                       # Time in different power states
system.cpu_clk_domain.clock                       500                       # Clock period in ticks
system.cpu.pwrStateResidencyTicks::OFF    29272088500                       # Cumulative time (in ticks) in various power states
system.cpu.icache.pwrStateResidencyTicks::UNDEFINED  29272088500                       # Cumulative time (in ticks) in various power states
system.cpu.icache.demand_hits::.switch_cpus.inst     36722725                       # number of demand (read+write) hits
system.cpu.icache.demand_hits::total         36722725                       # number of demand (read+write) hits
system.cpu.icache.overall_hits::.switch_cpus.inst     36722725                       # number of overall hits
system.cpu.icache.overall_hits::total        36722725                       # number of overall hits
system.cpu.icache.demand_accesses::.switch_cpus.inst     36722725                       # number of demand (read+write) accesses
system.cpu.icache.demand_accesses::total     36722725                       # number of demand (read+write) accesses
system.cpu.icache.overall_accesses::.switch_cpus.inst     36722725                       # number of overall (read+write) accesses
system.cpu.icache.overall_accesses::total     36722725                       # number of overall (read+write) accesses
system.cpu.icache.blocked_cycles::no_mshrs            0                       # number of cycles access was blocked
system.cpu.icache.blocked_cycles::no_targets            0                       # number of cycles access was blocked
system.cpu.icache.blocked::no_mshrs                 0                       # number of cycles access was blocked
system.cpu.icache.blocked::no_targets               0                       # number of cycles access was blocked
system.cpu.icache.avg_blocked_cycles::no_mshrs          nan                       # average number of cycles each access was blocked
system.cpu.icache.avg_blocked_cycles::no_targets          nan                       # average number of cycles each access was blocked
system.cpu.icache.replacements                      0                       # number of replacements
system.cpu.icache.ReadReq_hits::.switch_cpus.inst     36722725                       # number of ReadReq hits
system.cpu.icache.ReadReq_hits::total        36722725                       # number of ReadReq hits
system.cpu.icache.ReadReq_accesses::.switch_cpus.inst     36722725                       # number of ReadReq accesses(hits+misses)
system.cpu.icache.ReadReq_accesses::total     36722725                       # number of ReadReq accesses(hits+misses)
system.cpu.icache.tags.pwrStateResidencyTicks::UNDEFINED  29272088500                       # Cumulative time (in ticks) in various power states
system.cpu.icache.tags.tagsinuse                   57                       # Cycle average of tags in use
system.cpu.icache.tags.total_refs            48975994                       # Total number of references to valid blocks.
system.cpu.icache.tags.sampled_refs                57                       # Sample count of references to valid blocks.
system.cpu.icache.tags.avg_refs          859227.964912                       # Average number of references to valid blocks.
system.cpu.icache.tags.warmup_cycle                 0                       # Cycle when the warmup percentage was hit.
system.cpu.icache.tags.occ_blocks::.cpu.inst            2                       # Average occupied blocks per requestor
system.cpu.icache.tags.occ_blocks::.switch_cpus.inst           55                       # Average occupied blocks per requestor
system.cpu.icache.tags.occ_percent::.cpu.inst     0.003906                       # Average percentage of cache occupancy
system.cpu.icache.tags.occ_percent::.switch_cpus.inst     0.107422                       # Average percentage of cache occupancy
system.cpu.icache.tags.occ_percent::total     0.111328                       # Average percentage of cache occupancy
system.cpu.icache.tags.occ_task_id_blocks::1024           57                       # Occupied blocks per task id
system.cpu.icache.tags.age_task_id_blocks_1024::4           57                       # Occupied blocks per task id
system.cpu.icache.tags.occ_task_id_percent::1024     0.111328                       # Percentage of cache occupancy per task id
system.cpu.icache.tags.tag_accesses          73445450                       # Number of tag accesses
system.cpu.icache.tags.data_accesses         73445450                       # Number of data accesses
system.cpu.dtb.walker.pwrStateResidencyTicks::UNDEFINED  29272088500                       # Cumulative time (in ticks) in various power states
system.cpu.interrupts.clk_domain.clock           8000                       # Clock period in ticks
system.cpu.itb_walker_cache.pwrStateResidencyTicks::UNDEFINED  29272088500                       # Cumulative time (in ticks) in various power states
system.cpu.itb_walker_cache.blocked_cycles::no_mshrs            0                       # number of cycles access was blocked
system.cpu.itb_walker_cache.blocked_cycles::no_targets            0                       # number of cycles access was blocked
system.cpu.itb_walker_cache.blocked::no_mshrs            0                       # number of cycles access was blocked
system.cpu.itb_walker_cache.blocked::no_targets            0                       # number of cycles access was blocked
system.cpu.itb_walker_cache.avg_blocked_cycles::no_mshrs          nan                       # average number of cycles each access was blocked
system.cpu.itb_walker_cache.avg_blocked_cycles::no_targets          nan                       # average number of cycles each access was blocked
system.cpu.itb_walker_cache.replacements            0                       # number of replacements
system.cpu.itb_walker_cache.tags.pwrStateResidencyTicks::UNDEFINED  29272088500                       # Cumulative time (in ticks) in various power states
system.cpu.itb_walker_cache.tags.tagsinuse            0                       # Cycle average of tags in use
system.cpu.itb_walker_cache.tags.total_refs            0                       # Total number of references to valid blocks.
system.cpu.itb_walker_cache.tags.sampled_refs            0                       # Sample count of references to valid blocks.
system.cpu.itb_walker_cache.tags.avg_refs          nan                       # Average number of references to valid blocks.
system.cpu.itb_walker_cache.tags.warmup_cycle            0                       # Cycle when the warmup percentage was hit.
system.cpu.itb_walker_cache.tags.tag_accesses            0                       # Number of tag accesses
system.cpu.itb_walker_cache.tags.data_accesses            0                       # Number of data accesses
system.cpu.itb.walker.pwrStateResidencyTicks::UNDEFINED  29272088500                       # Cumulative time (in ticks) in various power states
system.cpu.dtb_walker_cache.pwrStateResidencyTicks::UNDEFINED  29272088500                       # Cumulative time (in ticks) in various power states
system.cpu.dtb_walker_cache.blocked_cycles::no_mshrs            0                       # number of cycles access was blocked
system.cpu.dtb_walker_cache.blocked_cycles::no_targets            0                       # number of cycles access was blocked
system.cpu.dtb_walker_cache.blocked::no_mshrs            0                       # number of cycles access was blocked
system.cpu.dtb_walker_cache.blocked::no_targets            0                       # number of cycles access was blocked
system.cpu.dtb_walker_cache.avg_blocked_cycles::no_mshrs          nan                       # average number of cycles each access was blocked
system.cpu.dtb_walker_cache.avg_blocked_cycles::no_targets          nan                       # average number of cycles each access was blocked
system.cpu.dtb_walker_cache.replacements            0                       # number of replacements
system.cpu.dtb_walker_cache.tags.pwrStateResidencyTicks::UNDEFINED  29272088500                       # Cumulative time (in ticks) in various power states
system.cpu.dtb_walker_cache.tags.tagsinuse            0                       # Cycle average of tags in use
system.cpu.dtb_walker_cache.tags.total_refs            0                       # Total number of references to valid blocks.
system.cpu.dtb_walker_cache.tags.sampled_refs            0                       # Sample count of references to valid blocks.
system.cpu.dtb_walker_cache.tags.avg_refs          nan                       # Average number of references to valid blocks.
system.cpu.dtb_walker_cache.tags.warmup_cycle            0                       # Cycle when the warmup percentage was hit.
system.cpu.dtb_walker_cache.tags.tag_accesses            0                       # Number of tag accesses
system.cpu.dtb_walker_cache.tags.data_accesses            0                       # Number of data accesses
system.cpu.dcache.pwrStateResidencyTicks::UNDEFINED  29272088500                       # Cumulative time (in ticks) in various power states
system.cpu.dcache.demand_hits::.switch_cpus.data      9545382                       # number of demand (read+write) hits
system.cpu.dcache.demand_hits::total          9545382                       # number of demand (read+write) hits
system.cpu.dcache.overall_hits::.switch_cpus.data      9545382                       # number of overall hits
system.cpu.dcache.overall_hits::total         9545382                       # number of overall hits
system.cpu.dcache.demand_misses::.switch_cpus.data      2786413                       # number of demand (read+write) misses
system.cpu.dcache.demand_misses::total        2786413                       # number of demand (read+write) misses
system.cpu.dcache.overall_misses::.switch_cpus.data      2786413                       # number of overall misses
system.cpu.dcache.overall_misses::total       2786413                       # number of overall misses
system.cpu.dcache.demand_accesses::.switch_cpus.data     12331795                       # number of demand (read+write) accesses
system.cpu.dcache.demand_accesses::total     12331795                       # number of demand (read+write) accesses
system.cpu.dcache.overall_accesses::.switch_cpus.data     12331795                       # number of overall (read+write) accesses
system.cpu.dcache.overall_accesses::total     12331795                       # number of overall (read+write) accesses
system.cpu.dcache.demand_miss_rate::.switch_cpus.data     0.225954                       # miss rate for demand accesses
system.cpu.dcache.demand_miss_rate::total     0.225954                       # miss rate for demand accesses
system.cpu.dcache.overall_miss_rate::.switch_cpus.data     0.225954                       # miss rate for overall accesses
system.cpu.dcache.overall_miss_rate::total     0.225954                       # miss rate for overall accesses
system.cpu.dcache.blocked_cycles::no_mshrs            0                       # number of cycles access was blocked
system.cpu.dcache.blocked_cycles::no_targets            0                       # number of cycles access was blocked
system.cpu.dcache.blocked::no_mshrs                 0                       # number of cycles access was blocked
system.cpu.dcache.blocked::no_targets               0                       # number of cycles access was blocked
system.cpu.dcache.avg_blocked_cycles::no_mshrs          nan                       # average number of cycles each access was blocked
system.cpu.dcache.avg_blocked_cycles::no_targets          nan                       # average number of cycles each access was blocked
system.cpu.dcache.writebacks::.writebacks      1246988                       # number of writebacks
system.cpu.dcache.writebacks::total           1246988                       # number of writebacks
system.cpu.dcache.replacements                2786413                       # number of replacements
system.cpu.dcache.ReadReq_hits::.switch_cpus.data      7682950                       # number of ReadReq hits
system.cpu.dcache.ReadReq_hits::total         7682950                       # number of ReadReq hits
system.cpu.dcache.ReadReq_misses::.switch_cpus.data      2716683                       # number of ReadReq misses
system.cpu.dcache.ReadReq_misses::total       2716683                       # number of ReadReq misses
system.cpu.dcache.ReadReq_accesses::.switch_cpus.data     10399633                       # number of ReadReq accesses(hits+misses)
system.cpu.dcache.ReadReq_accesses::total     10399633                       # number of ReadReq accesses(hits+misses)
system.cpu.dcache.ReadReq_miss_rate::.switch_cpus.data     0.261229                       # miss rate for ReadReq accesses
system.cpu.dcache.ReadReq_miss_rate::total     0.261229                       # miss rate for ReadReq accesses
system.cpu.dcache.WriteReq_hits::.switch_cpus.data      1862432                       # number of WriteReq hits
system.cpu.dcache.WriteReq_hits::total        1862432                       # number of WriteReq hits
system.cpu.dcache.WriteReq_misses::.switch_cpus.data        69730                       # number of WriteReq misses
system.cpu.dcache.WriteReq_misses::total        69730                       # number of WriteReq misses
system.cpu.dcache.WriteReq_accesses::.switch_cpus.data      1932162                       # number of WriteReq accesses(hits+misses)
system.cpu.dcache.WriteReq_accesses::total      1932162                       # number of WriteReq accesses(hits+misses)
system.cpu.dcache.WriteReq_miss_rate::.switch_cpus.data     0.036089                       # miss rate for WriteReq accesses
system.cpu.dcache.WriteReq_miss_rate::total     0.036089                       # miss rate for WriteReq accesses
system.cpu.dcache.tags.pwrStateResidencyTicks::UNDEFINED  29272088500                       # Cumulative time (in ticks) in various power states
system.cpu.dcache.tags.tagsinuse                 1024                       # Cycle average of tags in use
system.cpu.dcache.tags.total_refs            12337197                       # Total number of references to valid blocks.
system.cpu.dcache.tags.sampled_refs           2787437                       # Sample count of references to valid blocks.
system.cpu.dcache.tags.avg_refs              4.426000                       # Average number of references to valid blocks.
system.cpu.dcache.tags.warmup_cycle                 0                       # Cycle when the warmup percentage was hit.
system.cpu.dcache.tags.occ_blocks::.switch_cpus.data         1024                       # Average occupied blocks per requestor
system.cpu.dcache.tags.occ_percent::.switch_cpus.data            1                       # Average percentage of cache occupancy
system.cpu.dcache.tags.occ_percent::total            1                       # Average percentage of cache occupancy
system.cpu.dcache.tags.occ_task_id_blocks::1024         1024                       # Occupied blocks per task id
system.cpu.dcache.tags.age_task_id_blocks_1024::0          877                       # Occupied blocks per task id
system.cpu.dcache.tags.age_task_id_blocks_1024::1          147                       # Occupied blocks per task id
system.cpu.dcache.tags.occ_task_id_percent::1024            1                       # Percentage of cache occupancy per task id
system.cpu.dcache.tags.tag_accesses          27450003                       # Number of tag accesses
system.cpu.dcache.tags.data_accesses         27450003                       # Number of data accesses

---------- End Simulation Statistics   ----------
