
---------- Begin Simulation Statistics ----------
final_tick                               270776195855000                       # Number of ticks from beginning of simulation (restored from checkpoints and never reset)
host_inst_rate                                  49715                       # Simulator instruction rate (inst/s)
host_mem_usage                                 804644                       # Number of bytes of host memory used
host_op_rate                                    83022                       # Simulator op (including micro ops) rate (op/s)
host_seconds                                   201.15                       # Real time elapsed on the host
host_tick_rate                               44324482                       # Simulator tick rate (ticks/s)
sim_freq                                 1000000000000                       # Frequency of simulated ticks
sim_insts                                    10000010                       # Number of instructions simulated
sim_ops                                      16699646                       # Number of ops (including micro ops) simulated
sim_seconds                                  0.008916                       # Number of seconds simulated
sim_ticks                                  8915801250                       # Number of ticks simulated
system.cpu.Branches                                 1                       # Number of branches fetched
system.cpu.committedInsts                           7                       # Number of instructions committed
system.cpu.committedOps                            18                       # Number of ops (including micro ops) committed
system.cpu.dtb.rdAccesses                           5                       # TLB accesses on read requests
system.cpu.dtb.rdMisses                             0                       # TLB misses on read requests
system.cpu.dtb.wrAccesses                           1                       # TLB accesses on write requests
system.cpu.dtb.wrMisses                             0                       # TLB misses on write requests
system.cpu.idle_fraction                            0                       # Percentage of idle cycles
system.cpu.itb.rdAccesses                           0                       # TLB accesses on read requests
system.cpu.itb.rdMisses                             0                       # TLB misses on read requests
system.cpu.itb.wrAccesses                           9                       # TLB accesses on write requests
system.cpu.itb.wrMisses                             0                       # TLB misses on write requests
system.cpu.not_idle_fraction                        1                       # Percentage of non-idle cycles
system.cpu.numCycles                               20                       # number of cpu cycles simulated
system.cpu.numWorkItemsCompleted                    0                       # number of work items this cpu completed
system.cpu.numWorkItemsStarted                      0                       # number of work items this cpu started
system.cpu.num_busy_cycles                         20                       # Number of busy cycles
system.cpu.num_cc_register_writes                   2                       # number of times the CC registers were written
system.cpu.num_conditional_control_insts            0                       # number of instructions that are conditional controls
system.cpu.num_fp_alu_accesses                      0                       # Number of float alu accesses
system.cpu.num_fp_insts                             0                       # number of float instructions
system.cpu.num_fp_register_reads                    0                       # number of times the floating registers were read
system.cpu.num_fp_register_writes                   0                       # number of times the floating registers were written
system.cpu.num_func_calls                           1                       # number of times a function call or return occured
system.cpu.num_idle_cycles                          0                       # Number of idle cycles
system.cpu.num_int_alu_accesses                    18                       # Number of integer alu accesses
system.cpu.num_int_insts                           18                       # number of integer instructions
system.cpu.num_int_register_reads                  40                       # number of times the integer registers were read
system.cpu.num_int_register_writes                 16                       # number of times the integer registers were written
system.cpu.num_load_insts                           5                       # Number of load instructions
system.cpu.num_mem_refs                             6                       # number of memory refs
system.cpu.num_store_insts                          1                       # Number of store instructions
system.cpu.num_vec_alu_accesses                     0                       # Number of vector alu accesses
system.cpu.num_vec_insts                            0                       # number of vector instructions
system.cpu.num_vec_register_reads                   0                       # number of times the vector registers were read
system.cpu.num_vec_register_writes                  0                       # number of times the vector registers were written
system.cpu.op_class::No_OpClass                     0      0.00%      0.00% # Class of executed instruction
system.cpu.op_class::IntAlu                        12     66.67%     66.67% # Class of executed instruction
system.cpu.op_class::IntMult                        0      0.00%     66.67% # Class of executed instruction
system.cpu.op_class::IntDiv                         0      0.00%     66.67% # Class of executed instruction
system.cpu.op_class::FloatAdd                       0      0.00%     66.67% # Class of executed instruction
system.cpu.op_class::FloatCmp                       0      0.00%     66.67% # Class of executed instruction
system.cpu.op_class::FloatCvt                       0      0.00%     66.67% # Class of executed instruction
system.cpu.op_class::FloatMult                      0      0.00%     66.67% # Class of executed instruction
system.cpu.op_class::FloatMultAcc                   0      0.00%     66.67% # Class of executed instruction
system.cpu.op_class::FloatDiv                       0      0.00%     66.67% # Class of executed instruction
system.cpu.op_class::FloatMisc                      0      0.00%     66.67% # Class of executed instruction
system.cpu.op_class::FloatSqrt                      0      0.00%     66.67% # Class of executed instruction
system.cpu.op_class::SimdAdd                        0      0.00%     66.67% # Class of executed instruction
system.cpu.op_class::SimdAddAcc                     0      0.00%     66.67% # Class of executed instruction
system.cpu.op_class::SimdAlu                        0      0.00%     66.67% # Class of executed instruction
system.cpu.op_class::SimdCmp                        0      0.00%     66.67% # Class of executed instruction
system.cpu.op_class::SimdCvt                        0      0.00%     66.67% # Class of executed instruction
system.cpu.op_class::SimdMisc                       0      0.00%     66.67% # Class of executed instruction
system.cpu.op_class::SimdMult                       0      0.00%     66.67% # Class of executed instruction
system.cpu.op_class::SimdMultAcc                    0      0.00%     66.67% # Class of executed instruction
system.cpu.op_class::SimdShift                      0      0.00%     66.67% # Class of executed instruction
system.cpu.op_class::SimdShiftAcc                   0      0.00%     66.67% # Class of executed instruction
system.cpu.op_class::SimdDiv                        0      0.00%     66.67% # Class of executed instruction
system.cpu.op_class::SimdSqrt                       0      0.00%     66.67% # Class of executed instruction
system.cpu.op_class::SimdFloatAdd                   0      0.00%     66.67% # Class of executed instruction
system.cpu.op_class::SimdFloatAlu                   0      0.00%     66.67% # Class of executed instruction
system.cpu.op_class::SimdFloatCmp                   0      0.00%     66.67% # Class of executed instruction
system.cpu.op_class::SimdFloatCvt                   0      0.00%     66.67% # Class of executed instruction
system.cpu.op_class::SimdFloatDiv                   0      0.00%     66.67% # Class of executed instruction
system.cpu.op_class::SimdFloatMisc                  0      0.00%     66.67% # Class of executed instruction
system.cpu.op_class::SimdFloatMult                  0      0.00%     66.67% # Class of executed instruction
system.cpu.op_class::SimdFloatMultAcc               0      0.00%     66.67% # Class of executed instruction
system.cpu.op_class::SimdFloatSqrt                  0      0.00%     66.67% # Class of executed instruction
system.cpu.op_class::SimdReduceAdd                  0      0.00%     66.67% # Class of executed instruction
system.cpu.op_class::SimdReduceAlu                  0      0.00%     66.67% # Class of executed instruction
system.cpu.op_class::SimdReduceCmp                  0      0.00%     66.67% # Class of executed instruction
system.cpu.op_class::SimdFloatReduceAdd             0      0.00%     66.67% # Class of executed instruction
system.cpu.op_class::SimdFloatReduceCmp             0      0.00%     66.67% # Class of executed instruction
system.cpu.op_class::SimdAes                        0      0.00%     66.67% # Class of executed instruction
system.cpu.op_class::SimdAesMix                     0      0.00%     66.67% # Class of executed instruction
system.cpu.op_class::SimdSha1Hash                   0      0.00%     66.67% # Class of executed instruction
system.cpu.op_class::SimdSha1Hash2                  0      0.00%     66.67% # Class of executed instruction
system.cpu.op_class::SimdSha256Hash                 0      0.00%     66.67% # Class of executed instruction
system.cpu.op_class::SimdSha256Hash2                0      0.00%     66.67% # Class of executed instruction
system.cpu.op_class::SimdShaSigma2                  0      0.00%     66.67% # Class of executed instruction
system.cpu.op_class::SimdShaSigma3                  0      0.00%     66.67% # Class of executed instruction
system.cpu.op_class::SimdPredAlu                    0      0.00%     66.67% # Class of executed instruction
system.cpu.op_class::MemRead                        5     27.78%     94.44% # Class of executed instruction
system.cpu.op_class::MemWrite                       1      5.56%    100.00% # Class of executed instruction
system.cpu.op_class::FloatMemRead                   0      0.00%    100.00% # Class of executed instruction
system.cpu.op_class::FloatMemWrite                  0      0.00%    100.00% # Class of executed instruction
system.cpu.op_class::IprAccess                      0      0.00%    100.00% # Class of executed instruction
system.cpu.op_class::InstPrefetch                   0      0.00%    100.00% # Class of executed instruction
system.cpu.op_class::total                         18                       # Class of executed instruction
system.cpu.workload.numSyscalls                     0                       # Number of system calls
system.membus.snoop_filter.hit_multi_requests            0                       # Number of requests hitting in the snoop filter with multiple (>1) holders of the requested data.
system.membus.snoop_filter.hit_multi_snoops            0                       # Number of snoops hitting in the snoop filter with multiple (>1) holders of the requested data.
system.membus.snoop_filter.hit_single_requests       153354                       # Number of requests hitting in the snoop filter with a single holder of the requested data.
system.membus.snoop_filter.hit_single_snoops            0                       # Number of snoops hitting in the snoop filter with a single holder of the requested data.
system.membus.snoop_filter.tot_requests        311557                       # Total number of requests made to the snoop filter.
system.membus.snoop_filter.tot_snoops               0                       # Total number of snoops made to the snoop filter.
system.switch_cpus.branchPred.BTBCorrect            0                       # Number of correct BTB predictions (this stat may not work properly.
system.switch_cpus.branchPred.BTBHitPct      0.000000                       # BTB Hit Percentage
system.switch_cpus.branchPred.BTBHits               0                       # Number of BTB hits
system.switch_cpus.branchPred.BTBLookups      1223969                       # Number of BTB lookups
system.switch_cpus.branchPred.RASInCorrect           32                       # Number of incorrect RAS predictions.
system.switch_cpus.branchPred.condIncorrect        60611                       # Number of conditional branches incorrect
system.switch_cpus.branchPred.condPredicted      1254889                       # Number of conditional branches predicted
system.switch_cpus.branchPred.indirectHits       939961                       # Number of indirect target hits.
system.switch_cpus.branchPred.indirectLookups      1223969                       # Number of indirect predictor lookups.
system.switch_cpus.branchPred.indirectMisses       284008                       # Number of indirect misses.
system.switch_cpus.branchPred.lookups         1326190                       # Number of BP lookups
system.switch_cpus.branchPred.usedRAS           35576                       # Number of times the RAS was used to get a target.
system.switch_cpus.branchPredindirectMispredicted        12667                       # Number of mispredicted indirect branches.
system.switch_cpus.cc_regfile_reads           6142662                       # number of cc regfile reads
system.switch_cpus.cc_regfile_writes          4083227                       # number of cc regfile writes
system.switch_cpus.commit.amos                      0                       # Number of atomic instructions committed
system.switch_cpus.commit.branchMispredicts        60678                       # The number of times a branch was mispredicted
system.switch_cpus.commit.branches            1012410                       # Number of branches committed
system.switch_cpus.commit.bw_lim_events       1373611                       # number cycles where commit BW limit reached
system.switch_cpus.commit.commitSquashedInsts      2188024                       # The number of squashed insts skipped by commit
system.switch_cpus.commit.committedInsts     10000003                       # Number of instructions committed
system.switch_cpus.commit.committedOps       16699628                       # Number of ops (including micro ops) committed
system.switch_cpus.commit.committed_per_cycle::samples     17493601                       # Number of insts commited each cycle
system.switch_cpus.commit.committed_per_cycle::mean     0.954614                       # Number of insts commited each cycle
system.switch_cpus.commit.committed_per_cycle::stdev     2.318943                       # Number of insts commited each cycle
system.switch_cpus.commit.committed_per_cycle::underflows            0      0.00%      0.00% # Number of insts commited each cycle
system.switch_cpus.commit.committed_per_cycle::0     14009901     80.09%     80.09% # Number of insts commited each cycle
system.switch_cpus.commit.committed_per_cycle::1       947877      5.42%     85.50% # Number of insts commited each cycle
system.switch_cpus.commit.committed_per_cycle::2       118403      0.68%     86.18% # Number of insts commited each cycle
system.switch_cpus.commit.committed_per_cycle::3       191121      1.09%     87.27% # Number of insts commited each cycle
system.switch_cpus.commit.committed_per_cycle::4       480277      2.75%     90.02% # Number of insts commited each cycle
system.switch_cpus.commit.committed_per_cycle::5       253508      1.45%     91.47% # Number of insts commited each cycle
system.switch_cpus.commit.committed_per_cycle::6        68275      0.39%     91.86% # Number of insts commited each cycle
system.switch_cpus.commit.committed_per_cycle::7        50628      0.29%     92.15% # Number of insts commited each cycle
system.switch_cpus.commit.committed_per_cycle::8      1373611      7.85%    100.00% # Number of insts commited each cycle
system.switch_cpus.commit.committed_per_cycle::overflows            0      0.00%    100.00% # Number of insts commited each cycle
system.switch_cpus.commit.committed_per_cycle::min_value            0                       # Number of insts commited each cycle
system.switch_cpus.commit.committed_per_cycle::max_value            8                       # Number of insts commited each cycle
system.switch_cpus.commit.committed_per_cycle::total     17493601                       # Number of insts commited each cycle
system.switch_cpus.commit.fp_insts            9250008                       # Number of committed floating point instructions.
system.switch_cpus.commit.function_calls        18108                       # Number of function calls committed.
system.switch_cpus.commit.int_insts           9386149                       # Number of committed integer instructions.
system.switch_cpus.commit.loads               2651089                       # Number of loads committed
system.switch_cpus.commit.membars                   0                       # Number of memory barriers committed
system.switch_cpus.commit.op_class_0::No_OpClass        28068      0.17%      0.17% # Class of committed instruction
system.switch_cpus.commit.op_class_0::IntAlu      7077496     42.38%     42.55% # Class of committed instruction
system.switch_cpus.commit.op_class_0::IntMult           15      0.00%     42.55% # Class of committed instruction
system.switch_cpus.commit.op_class_0::IntDiv           77      0.00%     42.55% # Class of committed instruction
system.switch_cpus.commit.op_class_0::FloatAdd       834706      5.00%     47.55% # Class of committed instruction
system.switch_cpus.commit.op_class_0::FloatCmp            0      0.00%     47.55% # Class of committed instruction
system.switch_cpus.commit.op_class_0::FloatCvt            0      0.00%     47.55% # Class of committed instruction
system.switch_cpus.commit.op_class_0::FloatMult            0      0.00%     47.55% # Class of committed instruction
system.switch_cpus.commit.op_class_0::FloatMultAcc            0      0.00%     47.55% # Class of committed instruction
system.switch_cpus.commit.op_class_0::FloatDiv            0      0.00%     47.55% # Class of committed instruction
system.switch_cpus.commit.op_class_0::FloatMisc            0      0.00%     47.55% # Class of committed instruction
system.switch_cpus.commit.op_class_0::FloatSqrt            0      0.00%     47.55% # Class of committed instruction
system.switch_cpus.commit.op_class_0::SimdAdd            0      0.00%     47.55% # Class of committed instruction
system.switch_cpus.commit.op_class_0::SimdAddAcc            0      0.00%     47.55% # Class of committed instruction
system.switch_cpus.commit.op_class_0::SimdAlu      1472440      8.82%     56.37% # Class of committed instruction
system.switch_cpus.commit.op_class_0::SimdCmp            0      0.00%     56.37% # Class of committed instruction
system.switch_cpus.commit.op_class_0::SimdCvt            6      0.00%     56.37% # Class of committed instruction
system.switch_cpus.commit.op_class_0::SimdMisc        40222      0.24%     56.61% # Class of committed instruction
system.switch_cpus.commit.op_class_0::SimdMult            0      0.00%     56.61% # Class of committed instruction
system.switch_cpus.commit.op_class_0::SimdMultAcc            0      0.00%     56.61% # Class of committed instruction
system.switch_cpus.commit.op_class_0::SimdShift            0      0.00%     56.61% # Class of committed instruction
system.switch_cpus.commit.op_class_0::SimdShiftAcc            0      0.00%     56.61% # Class of committed instruction
system.switch_cpus.commit.op_class_0::SimdDiv            0      0.00%     56.61% # Class of committed instruction
system.switch_cpus.commit.op_class_0::SimdSqrt            0      0.00%     56.61% # Class of committed instruction
system.switch_cpus.commit.op_class_0::SimdFloatAdd      1392117      8.34%     64.94% # Class of committed instruction
system.switch_cpus.commit.op_class_0::SimdFloatAlu            0      0.00%     64.94% # Class of committed instruction
system.switch_cpus.commit.op_class_0::SimdFloatCmp        20118      0.12%     65.06% # Class of committed instruction
system.switch_cpus.commit.op_class_0::SimdFloatCvt      1492478      8.94%     74.00% # Class of committed instruction
system.switch_cpus.commit.op_class_0::SimdFloatDiv            0      0.00%     74.00% # Class of committed instruction
system.switch_cpus.commit.op_class_0::SimdFloatMisc            0      0.00%     74.00% # Class of committed instruction
system.switch_cpus.commit.op_class_0::SimdFloatMult      1432276      8.58%     82.58% # Class of committed instruction
system.switch_cpus.commit.op_class_0::SimdFloatMultAcc            0      0.00%     82.58% # Class of committed instruction
system.switch_cpus.commit.op_class_0::SimdFloatSqrt            0      0.00%     82.58% # Class of committed instruction
system.switch_cpus.commit.op_class_0::SimdReduceAdd            0      0.00%     82.58% # Class of committed instruction
system.switch_cpus.commit.op_class_0::SimdReduceAlu            0      0.00%     82.58% # Class of committed instruction
system.switch_cpus.commit.op_class_0::SimdReduceCmp            0      0.00%     82.58% # Class of committed instruction
system.switch_cpus.commit.op_class_0::SimdFloatReduceAdd            0      0.00%     82.58% # Class of committed instruction
system.switch_cpus.commit.op_class_0::SimdFloatReduceCmp            0      0.00%     82.58% # Class of committed instruction
system.switch_cpus.commit.op_class_0::SimdAes            0      0.00%     82.58% # Class of committed instruction
system.switch_cpus.commit.op_class_0::SimdAesMix            0      0.00%     82.58% # Class of committed instruction
system.switch_cpus.commit.op_class_0::SimdSha1Hash            0      0.00%     82.58% # Class of committed instruction
system.switch_cpus.commit.op_class_0::SimdSha1Hash2            0      0.00%     82.58% # Class of committed instruction
system.switch_cpus.commit.op_class_0::SimdSha256Hash            0      0.00%     82.58% # Class of committed instruction
system.switch_cpus.commit.op_class_0::SimdSha256Hash2            0      0.00%     82.58% # Class of committed instruction
system.switch_cpus.commit.op_class_0::SimdShaSigma2            0      0.00%     82.58% # Class of committed instruction
system.switch_cpus.commit.op_class_0::SimdShaSigma3            0      0.00%     82.58% # Class of committed instruction
system.switch_cpus.commit.op_class_0::SimdPredAlu            0      0.00%     82.58% # Class of committed instruction
system.switch_cpus.commit.op_class_0::MemRead       789848      4.73%     87.31% # Class of committed instruction
system.switch_cpus.commit.op_class_0::MemWrite       194915      1.17%     88.47% # Class of committed instruction
system.switch_cpus.commit.op_class_0::FloatMemRead      1861241     11.15%     99.62% # Class of committed instruction
system.switch_cpus.commit.op_class_0::FloatMemWrite        63605      0.38%    100.00% # Class of committed instruction
system.switch_cpus.commit.op_class_0::IprAccess            0      0.00%    100.00% # Class of committed instruction
system.switch_cpus.commit.op_class_0::InstPrefetch            0      0.00%    100.00% # Class of committed instruction
system.switch_cpus.commit.op_class_0::total     16699628                       # Class of committed instruction
system.switch_cpus.commit.refs                2909609                       # Number of memory references committed
system.switch_cpus.commit.swp_count                 0                       # Number of s/w prefetches committed
system.switch_cpus.commit.vec_insts                 0                       # Number of committed Vector instructions.
system.switch_cpus.committedInsts            10000003                       # Number of Instructions Simulated
system.switch_cpus.committedOps              16699628                       # Number of Ops (including micro ops) Simulated
system.switch_cpus.cpi                       1.783158                       # CPI: Cycles Per Instruction
system.switch_cpus.cpi_total                 1.783158                       # CPI: Total CPI of All Threads
system.switch_cpus.decode.BlockedCycles      13958784                       # Number of cycles decode is blocked
system.switch_cpus.decode.DecodedInsts       19622713                       # Number of instructions handled by decode
system.switch_cpus.decode.IdleCycles          1013707                       # Number of cycles decode is idle
system.switch_cpus.decode.RunCycles           1897027                       # Number of cycles decode is running
system.switch_cpus.decode.SquashCycles          60858                       # Number of cycles decode is squashing
system.switch_cpus.decode.UnblockCycles        872590                       # Number of cycles decode is unblocking
system.switch_cpus.dtb.rdAccesses             3018433                       # TLB accesses on read requests
system.switch_cpus.dtb.rdMisses                 10969                       # TLB misses on read requests
system.switch_cpus.dtb.wrAccesses              287579                       # TLB accesses on write requests
system.switch_cpus.dtb.wrMisses                   601                       # TLB misses on write requests
system.switch_cpus.fetch.Branches             1326190                       # Number of branches that fetch encountered
system.switch_cpus.fetch.CacheLines           1491272                       # Number of cache lines fetched
system.switch_cpus.fetch.Cycles              16201890                       # Number of cycles fetch has run and was not squashing or blocked
system.switch_cpus.fetch.IcacheSquashes         12443                       # Number of outstanding Icache misses that were squashed
system.switch_cpus.fetch.Insts               12389206                       # Number of instructions fetch has processed
system.switch_cpus.fetch.MiscStallCycles           63                       # Number of cycles fetch has spent waiting on interrupts, or bad addresses, or out of MSHRs
system.switch_cpus.fetch.PendingTrapStallCycles         1635                       # Number of stall cycles due to pending traps
system.switch_cpus.fetch.SquashCycles          121716                       # Number of cycles fetch has spent squashing
system.switch_cpus.fetch.branchRate          0.074373                       # Number of branch fetches per cycle
system.switch_cpus.fetch.icacheStallCycles      1538521                       # Number of cycles fetch is stalled on an Icache miss
system.switch_cpus.fetch.predictedBranches       975537                       # Number of branches that fetch has predicted taken
system.switch_cpus.fetch.rate                0.694790                       # Number of inst fetches per cycle
system.switch_cpus.fetch.rateDist::samples     17802967                       # Number of instructions fetched each cycle (Total)
system.switch_cpus.fetch.rateDist::mean      1.166437                       # Number of instructions fetched each cycle (Total)
system.switch_cpus.fetch.rateDist::stdev     2.585058                       # Number of instructions fetched each cycle (Total)
system.switch_cpus.fetch.rateDist::underflows            0      0.00%      0.00% # Number of instructions fetched each cycle (Total)
system.switch_cpus.fetch.rateDist::0         14271247     80.16%     80.16% # Number of instructions fetched each cycle (Total)
system.switch_cpus.fetch.rateDist::1           311660      1.75%     81.91% # Number of instructions fetched each cycle (Total)
system.switch_cpus.fetch.rateDist::2           187110      1.05%     82.96% # Number of instructions fetched each cycle (Total)
system.switch_cpus.fetch.rateDist::3           215851      1.21%     84.18% # Number of instructions fetched each cycle (Total)
system.switch_cpus.fetch.rateDist::4           327786      1.84%     86.02% # Number of instructions fetched each cycle (Total)
system.switch_cpus.fetch.rateDist::5           277008      1.56%     87.57% # Number of instructions fetched each cycle (Total)
system.switch_cpus.fetch.rateDist::6           430593      2.42%     89.99% # Number of instructions fetched each cycle (Total)
system.switch_cpus.fetch.rateDist::7           100824      0.57%     90.56% # Number of instructions fetched each cycle (Total)
system.switch_cpus.fetch.rateDist::8          1680888      9.44%    100.00% # Number of instructions fetched each cycle (Total)
system.switch_cpus.fetch.rateDist::overflows            0      0.00%    100.00% # Number of instructions fetched each cycle (Total)
system.switch_cpus.fetch.rateDist::min_value            0                       # Number of instructions fetched each cycle (Total)
system.switch_cpus.fetch.rateDist::max_value            8                       # Number of instructions fetched each cycle (Total)
system.switch_cpus.fetch.rateDist::total     17802967                       # Number of instructions fetched each cycle (Total)
system.switch_cpus.fp_regfile_reads          16022085                       # number of floating regfile reads
system.switch_cpus.fp_regfile_writes          9303254                       # number of floating regfile writes
system.switch_cpus.idleCycles                   28615                       # Total number of cycles that the CPU has spent unscheduled due to idling
system.switch_cpus.iew.branchMispredicts        67738                       # Number of branch mispredicts detected at execute
system.switch_cpus.iew.exec_branches          1087777                       # Number of branches executed
system.switch_cpus.iew.exec_nop                     0                       # number of nop insts executed
system.switch_cpus.iew.exec_rate             1.016335                       # Inst execution rate
system.switch_cpus.iew.exec_refs              3331877                       # number of memory reference insts executed
system.switch_cpus.iew.exec_stores             287569                       # Number of stores executed
system.switch_cpus.iew.exec_swp                     0                       # number of swp insts executed
system.switch_cpus.iew.iewBlockCycles         7280487                       # Number of cycles IEW is blocking
system.switch_cpus.iew.iewDispLoadInsts       3070616                       # Number of dispatched load instructions
system.switch_cpus.iew.iewDispNonSpecInsts            0                       # Number of dispatched non-speculative instructions
system.switch_cpus.iew.iewDispSquashedInsts         4770                       # Number of squashed instructions skipped by dispatch
system.switch_cpus.iew.iewDispStoreInsts       324160                       # Number of dispatched store instructions
system.switch_cpus.iew.iewDispatchedInsts     18885527                       # Number of instructions dispatched to IQ
system.switch_cpus.iew.iewExecLoadInsts       3044308                       # Number of load instructions executed
system.switch_cpus.iew.iewExecSquashedInsts       109989                       # Number of squashed instructions skipped in execute
system.switch_cpus.iew.iewExecutedInsts      18122866                       # Number of executed instructions
system.switch_cpus.iew.iewIQFullEvents          80153                       # Number of times the IQ has become full, causing a stall
system.switch_cpus.iew.iewIdleCycles                0                       # Number of cycles IEW is idle
system.switch_cpus.iew.iewLSQFullEvents        702520                       # Number of times the LSQ has become full, causing a stall
system.switch_cpus.iew.iewSquashCycles          60858                       # Number of cycles IEW is squashing
system.switch_cpus.iew.iewUnblockCycles        830259                       # Number of cycles IEW is unblocking
system.switch_cpus.iew.lsq.thread0.blockedLoads            0                       # Number of blocked loads due to partial load-store forwarding
system.switch_cpus.iew.lsq.thread0.cacheBlocked        19915                       # Number of times an access to memory failed due to the cache being blocked
system.switch_cpus.iew.lsq.thread0.forwLoads        37977                       # Number of loads that had data forwarded from stores
system.switch_cpus.iew.lsq.thread0.ignoredResponses          259                       # Number of memory responses ignored because the instruction is squashed
system.switch_cpus.iew.lsq.thread0.invAddrLoads            0                       # Number of loads ignored due to an invalid address
system.switch_cpus.iew.lsq.thread0.invAddrSwpfs            0                       # Number of software prefetches ignored due to an invalid address
system.switch_cpus.iew.lsq.thread0.memOrderViolation          198                       # Number of memory ordering violations
system.switch_cpus.iew.lsq.thread0.rescheduledLoads           34                       # Number of loads that were rescheduled
system.switch_cpus.iew.lsq.thread0.squashedLoads       419505                       # Number of loads squashed
system.switch_cpus.iew.lsq.thread0.squashedStores        65638                       # Number of stores squashed
system.switch_cpus.iew.memOrderViolationEvents          198                       # Number of memory order violations
system.switch_cpus.iew.predictedNotTakenIncorrect        19905                       # Number of branches that were predicted not taken incorrectly
system.switch_cpus.iew.predictedTakenIncorrect        47833                       # Number of branches that were predicted taken incorrectly
system.switch_cpus.iew.wb_consumers          23632481                       # num instructions consuming a value
system.switch_cpus.iew.wb_count              17897876                       # cumulative count of insts written-back
system.switch_cpus.iew.wb_fanout             0.589942                       # average fanout of values written-back
system.switch_cpus.iew.wb_producers          13941800                       # num instructions producing a value
system.switch_cpus.iew.wb_rate               1.003718                       # insts written-back per cycle
system.switch_cpus.iew.wb_sent               17923247                       # cumulative count of insts sent to commit
system.switch_cpus.int_regfile_reads         15388394                       # number of integer regfile reads
system.switch_cpus.int_regfile_writes         7187823                       # number of integer regfile writes
system.switch_cpus.ipc                       0.560803                       # IPC: Instructions Per Cycle
system.switch_cpus.ipc_total                 0.560803                       # IPC: Total IPC of All Threads
system.switch_cpus.iq.FU_type_0::No_OpClass        35649      0.20%      0.20% # Type of FU issued
system.switch_cpus.iq.FU_type_0::IntAlu       7991992     43.83%     44.03% # Type of FU issued
system.switch_cpus.iq.FU_type_0::IntMult           30      0.00%     44.03% # Type of FU issued
system.switch_cpus.iq.FU_type_0::IntDiv            94      0.00%     44.03% # Type of FU issued
system.switch_cpus.iq.FU_type_0::FloatAdd       899076      4.93%     48.96% # Type of FU issued
system.switch_cpus.iq.FU_type_0::FloatCmp            0      0.00%     48.96% # Type of FU issued
system.switch_cpus.iq.FU_type_0::FloatCvt            0      0.00%     48.96% # Type of FU issued
system.switch_cpus.iq.FU_type_0::FloatMult            0      0.00%     48.96% # Type of FU issued
system.switch_cpus.iq.FU_type_0::FloatMultAcc            0      0.00%     48.96% # Type of FU issued
system.switch_cpus.iq.FU_type_0::FloatDiv            0      0.00%     48.96% # Type of FU issued
system.switch_cpus.iq.FU_type_0::FloatMisc            0      0.00%     48.96% # Type of FU issued
system.switch_cpus.iq.FU_type_0::FloatSqrt            0      0.00%     48.96% # Type of FU issued
system.switch_cpus.iq.FU_type_0::SimdAdd            0      0.00%     48.96% # Type of FU issued
system.switch_cpus.iq.FU_type_0::SimdAddAcc            0      0.00%     48.96% # Type of FU issued
system.switch_cpus.iq.FU_type_0::SimdAlu      1537299      8.43%     57.39% # Type of FU issued
system.switch_cpus.iq.FU_type_0::SimdCmp            0      0.00%     57.39% # Type of FU issued
system.switch_cpus.iq.FU_type_0::SimdCvt           14      0.00%     57.39% # Type of FU issued
system.switch_cpus.iq.FU_type_0::SimdMisc        41302      0.23%     57.62% # Type of FU issued
system.switch_cpus.iq.FU_type_0::SimdMult            0      0.00%     57.62% # Type of FU issued
system.switch_cpus.iq.FU_type_0::SimdMultAcc            0      0.00%     57.62% # Type of FU issued
system.switch_cpus.iq.FU_type_0::SimdShift            0      0.00%     57.62% # Type of FU issued
system.switch_cpus.iq.FU_type_0::SimdShiftAcc            0      0.00%     57.62% # Type of FU issued
system.switch_cpus.iq.FU_type_0::SimdDiv            0      0.00%     57.62% # Type of FU issued
system.switch_cpus.iq.FU_type_0::SimdSqrt            0      0.00%     57.62% # Type of FU issued
system.switch_cpus.iq.FU_type_0::SimdFloatAdd      1395090      7.65%     65.27% # Type of FU issued
system.switch_cpus.iq.FU_type_0::SimdFloatAlu            0      0.00%     65.27% # Type of FU issued
system.switch_cpus.iq.FU_type_0::SimdFloatCmp        20119      0.11%     65.38% # Type of FU issued
system.switch_cpus.iq.FU_type_0::SimdFloatCvt      1499136      8.22%     73.60% # Type of FU issued
system.switch_cpus.iq.FU_type_0::SimdFloatDiv            0      0.00%     73.60% # Type of FU issued
system.switch_cpus.iq.FU_type_0::SimdFloatMisc            0      0.00%     73.60% # Type of FU issued
system.switch_cpus.iq.FU_type_0::SimdFloatMult      1436221      7.88%     81.48% # Type of FU issued
system.switch_cpus.iq.FU_type_0::SimdFloatMultAcc            0      0.00%     81.48% # Type of FU issued
system.switch_cpus.iq.FU_type_0::SimdFloatSqrt            0      0.00%     81.48% # Type of FU issued
system.switch_cpus.iq.FU_type_0::SimdReduceAdd            0      0.00%     81.48% # Type of FU issued
system.switch_cpus.iq.FU_type_0::SimdReduceAlu            0      0.00%     81.48% # Type of FU issued
system.switch_cpus.iq.FU_type_0::SimdReduceCmp            0      0.00%     81.48% # Type of FU issued
system.switch_cpus.iq.FU_type_0::SimdFloatReduceAdd            0      0.00%     81.48% # Type of FU issued
system.switch_cpus.iq.FU_type_0::SimdFloatReduceCmp            0      0.00%     81.48% # Type of FU issued
system.switch_cpus.iq.FU_type_0::SimdAes            0      0.00%     81.48% # Type of FU issued
system.switch_cpus.iq.FU_type_0::SimdAesMix            0      0.00%     81.48% # Type of FU issued
system.switch_cpus.iq.FU_type_0::SimdSha1Hash            0      0.00%     81.48% # Type of FU issued
system.switch_cpus.iq.FU_type_0::SimdSha1Hash2            0      0.00%     81.48% # Type of FU issued
system.switch_cpus.iq.FU_type_0::SimdSha256Hash            0      0.00%     81.48% # Type of FU issued
system.switch_cpus.iq.FU_type_0::SimdSha256Hash2            0      0.00%     81.48% # Type of FU issued
system.switch_cpus.iq.FU_type_0::SimdShaSigma2            0      0.00%     81.48% # Type of FU issued
system.switch_cpus.iq.FU_type_0::SimdShaSigma3            0      0.00%     81.48% # Type of FU issued
system.switch_cpus.iq.FU_type_0::SimdPredAlu            0      0.00%     81.48% # Type of FU issued
system.switch_cpus.iq.FU_type_0::MemRead      1075510      5.90%     87.38% # Type of FU issued
system.switch_cpus.iq.FU_type_0::MemWrite       228143      1.25%     88.63% # Type of FU issued
system.switch_cpus.iq.FU_type_0::FloatMemRead      2009091     11.02%     99.65% # Type of FU issued
system.switch_cpus.iq.FU_type_0::FloatMemWrite        64095      0.35%    100.00% # Type of FU issued
system.switch_cpus.iq.FU_type_0::IprAccess            0      0.00%    100.00% # Type of FU issued
system.switch_cpus.iq.FU_type_0::InstPrefetch            0      0.00%    100.00% # Type of FU issued
system.switch_cpus.iq.FU_type_0::total       18232861                       # Type of FU issued
system.switch_cpus.iq.fp_alu_accesses         9746797                       # Number of floating point alu accesses
system.switch_cpus.iq.fp_inst_queue_reads     19311332                       # Number of floating instruction queue reads
system.switch_cpus.iq.fp_inst_queue_wakeup_accesses      9416038                       # Number of floating instruction queue wakeup accesses
system.switch_cpus.iq.fp_inst_queue_writes     10140158                       # Number of floating instruction queue writes
system.switch_cpus.iq.fu_busy_cnt              308337                       # FU busy when requested
system.switch_cpus.iq.fu_busy_rate           0.016911                       # FU busy rate (busy events/executed inst)
system.switch_cpus.iq.fu_full::No_OpClass            0      0.00%      0.00% # attempts to use FU when none available
system.switch_cpus.iq.fu_full::IntAlu           99254     32.19%     32.19% # attempts to use FU when none available
system.switch_cpus.iq.fu_full::IntMult              0      0.00%     32.19% # attempts to use FU when none available
system.switch_cpus.iq.fu_full::IntDiv               0      0.00%     32.19% # attempts to use FU when none available
system.switch_cpus.iq.fu_full::FloatAdd             0      0.00%     32.19% # attempts to use FU when none available
system.switch_cpus.iq.fu_full::FloatCmp             0      0.00%     32.19% # attempts to use FU when none available
system.switch_cpus.iq.fu_full::FloatCvt             0      0.00%     32.19% # attempts to use FU when none available
system.switch_cpus.iq.fu_full::FloatMult            0      0.00%     32.19% # attempts to use FU when none available
system.switch_cpus.iq.fu_full::FloatMultAcc            0      0.00%     32.19% # attempts to use FU when none available
system.switch_cpus.iq.fu_full::FloatDiv             0      0.00%     32.19% # attempts to use FU when none available
system.switch_cpus.iq.fu_full::FloatMisc            0      0.00%     32.19% # attempts to use FU when none available
system.switch_cpus.iq.fu_full::FloatSqrt            0      0.00%     32.19% # attempts to use FU when none available
system.switch_cpus.iq.fu_full::SimdAdd              0      0.00%     32.19% # attempts to use FU when none available
system.switch_cpus.iq.fu_full::SimdAddAcc            0      0.00%     32.19% # attempts to use FU when none available
system.switch_cpus.iq.fu_full::SimdAlu          53279     17.28%     49.47% # attempts to use FU when none available
system.switch_cpus.iq.fu_full::SimdCmp              0      0.00%     49.47% # attempts to use FU when none available
system.switch_cpus.iq.fu_full::SimdCvt              0      0.00%     49.47% # attempts to use FU when none available
system.switch_cpus.iq.fu_full::SimdMisc             0      0.00%     49.47% # attempts to use FU when none available
system.switch_cpus.iq.fu_full::SimdMult             0      0.00%     49.47% # attempts to use FU when none available
system.switch_cpus.iq.fu_full::SimdMultAcc            0      0.00%     49.47% # attempts to use FU when none available
system.switch_cpus.iq.fu_full::SimdShift            0      0.00%     49.47% # attempts to use FU when none available
system.switch_cpus.iq.fu_full::SimdShiftAcc            0      0.00%     49.47% # attempts to use FU when none available
system.switch_cpus.iq.fu_full::SimdDiv              0      0.00%     49.47% # attempts to use FU when none available
system.switch_cpus.iq.fu_full::SimdSqrt             0      0.00%     49.47% # attempts to use FU when none available
system.switch_cpus.iq.fu_full::SimdFloatAdd        71509     23.19%     72.66% # attempts to use FU when none available
system.switch_cpus.iq.fu_full::SimdFloatAlu            0      0.00%     72.66% # attempts to use FU when none available
system.switch_cpus.iq.fu_full::SimdFloatCmp            0      0.00%     72.66% # attempts to use FU when none available
system.switch_cpus.iq.fu_full::SimdFloatCvt        19530      6.33%     79.00% # attempts to use FU when none available
system.switch_cpus.iq.fu_full::SimdFloatDiv            0      0.00%     79.00% # attempts to use FU when none available
system.switch_cpus.iq.fu_full::SimdFloatMisc            0      0.00%     79.00% # attempts to use FU when none available
system.switch_cpus.iq.fu_full::SimdFloatMult         4057      1.32%     80.31% # attempts to use FU when none available
system.switch_cpus.iq.fu_full::SimdFloatMultAcc            0      0.00%     80.31% # attempts to use FU when none available
system.switch_cpus.iq.fu_full::SimdFloatSqrt            0      0.00%     80.31% # attempts to use FU when none available
system.switch_cpus.iq.fu_full::SimdReduceAdd            0      0.00%     80.31% # attempts to use FU when none available
system.switch_cpus.iq.fu_full::SimdReduceAlu            0      0.00%     80.31% # attempts to use FU when none available
system.switch_cpus.iq.fu_full::SimdReduceCmp            0      0.00%     80.31% # attempts to use FU when none available
system.switch_cpus.iq.fu_full::SimdFloatReduceAdd            0      0.00%     80.31% # attempts to use FU when none available
system.switch_cpus.iq.fu_full::SimdFloatReduceCmp            0      0.00%     80.31% # attempts to use FU when none available
system.switch_cpus.iq.fu_full::SimdAes              0      0.00%     80.31% # attempts to use FU when none available
system.switch_cpus.iq.fu_full::SimdAesMix            0      0.00%     80.31% # attempts to use FU when none available
system.switch_cpus.iq.fu_full::SimdSha1Hash            0      0.00%     80.31% # attempts to use FU when none available
system.switch_cpus.iq.fu_full::SimdSha1Hash2            0      0.00%     80.31% # attempts to use FU when none available
system.switch_cpus.iq.fu_full::SimdSha256Hash            0      0.00%     80.31% # attempts to use FU when none available
system.switch_cpus.iq.fu_full::SimdSha256Hash2            0      0.00%     80.31% # attempts to use FU when none available
system.switch_cpus.iq.fu_full::SimdShaSigma2            0      0.00%     80.31% # attempts to use FU when none available
system.switch_cpus.iq.fu_full::SimdShaSigma3            0      0.00%     80.31% # attempts to use FU when none available
system.switch_cpus.iq.fu_full::SimdPredAlu            0      0.00%     80.31% # attempts to use FU when none available
system.switch_cpus.iq.fu_full::MemRead          20570      6.67%     86.98% # attempts to use FU when none available
system.switch_cpus.iq.fu_full::MemWrite          4268      1.38%     88.37% # attempts to use FU when none available
system.switch_cpus.iq.fu_full::FloatMemRead        35815     11.62%     99.98% # attempts to use FU when none available
system.switch_cpus.iq.fu_full::FloatMemWrite           55      0.02%    100.00% # attempts to use FU when none available
system.switch_cpus.iq.fu_full::IprAccess            0      0.00%    100.00% # attempts to use FU when none available
system.switch_cpus.iq.fu_full::InstPrefetch            0      0.00%    100.00% # attempts to use FU when none available
system.switch_cpus.iq.int_alu_accesses        8758752                       # Number of integer alu accesses
system.switch_cpus.iq.int_inst_queue_reads     35298880                       # Number of integer instruction queue reads
system.switch_cpus.iq.int_inst_queue_wakeup_accesses      8481838                       # Number of integer instruction queue wakeup accesses
system.switch_cpus.iq.int_inst_queue_writes     10931330                       # Number of integer instruction queue writes
system.switch_cpus.iq.iqInstsAdded           18885527                       # Number of instructions added to the IQ (excludes non-spec)
system.switch_cpus.iq.iqInstsIssued          18232861                       # Number of instructions issued
system.switch_cpus.iq.iqSquashedInstsExamined      2185767                       # Number of squashed instructions iterated over during squash; mainly for profiling
system.switch_cpus.iq.iqSquashedInstsIssued        33192                       # Number of squashed instructions issued
system.switch_cpus.iq.iqSquashedOperandsExamined      3283286                       # Number of squashed operands that are examined and possibly removed from graph
system.switch_cpus.iq.issued_per_cycle::samples     17802967                       # Number of insts issued each cycle
system.switch_cpus.iq.issued_per_cycle::mean     1.024147                       # Number of insts issued each cycle
system.switch_cpus.iq.issued_per_cycle::stdev     1.886219                       # Number of insts issued each cycle
system.switch_cpus.iq.issued_per_cycle::underflows            0      0.00%      0.00% # Number of insts issued each cycle
system.switch_cpus.iq.issued_per_cycle::0     12177931     68.40%     68.40% # Number of insts issued each cycle
system.switch_cpus.iq.issued_per_cycle::1      1441790      8.10%     76.50% # Number of insts issued each cycle
system.switch_cpus.iq.issued_per_cycle::2      1070690      6.01%     82.52% # Number of insts issued each cycle
system.switch_cpus.iq.issued_per_cycle::3       875703      4.92%     87.44% # Number of insts issued each cycle
system.switch_cpus.iq.issued_per_cycle::4       774800      4.35%     91.79% # Number of insts issued each cycle
system.switch_cpus.iq.issued_per_cycle::5       522830      2.94%     94.72% # Number of insts issued each cycle
system.switch_cpus.iq.issued_per_cycle::6       448768      2.52%     97.25% # Number of insts issued each cycle
system.switch_cpus.iq.issued_per_cycle::7       307016      1.72%     98.97% # Number of insts issued each cycle
system.switch_cpus.iq.issued_per_cycle::8       183439      1.03%    100.00% # Number of insts issued each cycle
system.switch_cpus.iq.issued_per_cycle::overflows            0      0.00%    100.00% # Number of insts issued each cycle
system.switch_cpus.iq.issued_per_cycle::min_value            0                       # Number of insts issued each cycle
system.switch_cpus.iq.issued_per_cycle::max_value            8                       # Number of insts issued each cycle
system.switch_cpus.iq.issued_per_cycle::total     17802967                       # Number of insts issued each cycle
system.switch_cpus.iq.rate                   1.022504                       # Inst issue rate
system.switch_cpus.iq.vec_alu_accesses              0                       # Number of vector alu accesses
system.switch_cpus.iq.vec_inst_queue_reads            0                       # Number of vector instruction queue reads
system.switch_cpus.iq.vec_inst_queue_wakeup_accesses            0                       # Number of vector instruction queue wakeup accesses
system.switch_cpus.iq.vec_inst_queue_writes            0                       # Number of vector instruction queue writes
system.switch_cpus.itb.rdAccesses                   0                       # TLB accesses on read requests
system.switch_cpus.itb.rdMisses                     0                       # TLB misses on read requests
system.switch_cpus.itb.wrAccesses             1491525                       # TLB accesses on write requests
system.switch_cpus.itb.wrMisses                   288                       # TLB misses on write requests
system.switch_cpus.memDep0.conflictingLoads        41869                       # Number of conflicting loads.
system.switch_cpus.memDep0.conflictingStores        16062                       # Number of conflicting stores.
system.switch_cpus.memDep0.insertedLoads      3070616                       # Number of loads inserted to the mem dependence unit.
system.switch_cpus.memDep0.insertedStores       324160                       # Number of stores inserted to the mem dependence unit.
system.switch_cpus.misc_regfile_reads         5595909                       # number of misc regfile reads
system.switch_cpus.misc_regfile_writes              1                       # number of misc regfile writes
system.switch_cpus.numCycles                 17831582                       # number of cpu cycles simulated
system.switch_cpus.numWorkItemsCompleted            0                       # number of work items this cpu completed
system.switch_cpus.numWorkItemsStarted              0                       # number of work items this cpu started
system.switch_cpus.rename.BlockCycles        11189821                       # Number of cycles rename is blocking
system.switch_cpus.rename.CommittedMaps      19126939                       # Number of HB maps that are committed
system.switch_cpus.rename.IQFullEvents        1506806                       # Number of times rename has blocked due to IQ full
system.switch_cpus.rename.IdleCycles          1367793                       # Number of cycles rename is idle
system.switch_cpus.rename.LQFullEvents         388425                       # Number of times rename has blocked due to LQ full
system.switch_cpus.rename.ROBFullEvents        131772                       # Number of times rename has blocked due to ROB full
system.switch_cpus.rename.RenameLookups      46944522                       # Number of register rename lookups that rename has made
system.switch_cpus.rename.RenamedInsts       19337613                       # Number of instructions processed by rename
system.switch_cpus.rename.RenamedOperands     22282896                       # Number of destination operands rename has renamed
system.switch_cpus.rename.RunCycles           2359610                       # Number of cycles rename is running
system.switch_cpus.rename.SQFullEvents         651915                       # Number of times rename has blocked due to SQ full
system.switch_cpus.rename.SquashCycles          60858                       # Number of cycles rename is squashing
system.switch_cpus.rename.UnblockCycles       2824884                       # Number of cycles rename is unblocking
system.switch_cpus.rename.UndoneMaps          3155799                       # Number of HB maps that are undone due to squashing
system.switch_cpus.rename.fp_rename_lookups     16839945                       # Number of floating rename lookups
system.switch_cpus.rename.int_rename_lookups     17008497                       # Number of integer rename lookups
system.switch_cpus.rename.serializeStallCycles            0                       # count of cycles rename stalled for serializing inst
system.switch_cpus.rename.serializingInsts            0                       # count of serializing insts renamed
system.switch_cpus.rename.skidInsts           4542536                       # count of insts added to the skid buffer
system.switch_cpus.rename.tempSerializingInsts            0                       # count of temporary serializing insts renamed
system.switch_cpus.rob.rob_reads             35007642                       # The number of ROB reads
system.switch_cpus.rob.rob_writes            38085386                       # The number of ROB writes
system.switch_cpus.timesIdled                     354                       # Number of times that the entire CPU went into an idle state and unscheduled itself
system.tol2bus.snoop_filter.hit_multi_requests            0                       # Number of requests hitting in the snoop filter with multiple (>1) holders of the requested data.
system.tol2bus.snoop_filter.hit_multi_snoops            0                       # Number of snoops hitting in the snoop filter with multiple (>1) holders of the requested data.
system.tol2bus.snoop_filter.hit_single_requests       183583                       # Number of requests hitting in the snoop filter with a single holder of the requested data.
system.tol2bus.snoop_filter.hit_single_snoops       144070                       # Number of snoops hitting in the snoop filter with a single holder of the requested data.
system.tol2bus.snoop_filter.tot_requests       368479                       # Total number of requests made to the snoop filter.
system.tol2bus.snoop_filter.tot_snoops         144070                       # Total number of snoops made to the snoop filter.
system.membus.pwrStateResidencyTicks::UNDEFINED 270776195855000                       # Cumulative time (in ticks) in various power states
system.membus.trans_dist::ReadResp             149178                       # Transaction distribution
system.membus.trans_dist::WritebackDirty        12576                       # Transaction distribution
system.membus.trans_dist::CleanEvict           140778                       # Transaction distribution
system.membus.trans_dist::ReadExReq              9024                       # Transaction distribution
system.membus.trans_dist::ReadExResp             9024                       # Transaction distribution
system.membus.trans_dist::ReadSharedReq        149179                       # Transaction distribution
system.membus.pkt_count_system.l2.mem_side::system.mem_ctrls.port       469759                       # Packet count per connected master and slave (bytes)
system.membus.pkt_count_system.l2.mem_side::total       469759                       # Packet count per connected master and slave (bytes)
system.membus.pkt_count::total                 469759                       # Packet count per connected master and slave (bytes)
system.membus.pkt_size_system.l2.mem_side::system.mem_ctrls.port     10929792                       # Cumulative packet size per connected master and slave (bytes)
system.membus.pkt_size_system.l2.mem_side::total     10929792                       # Cumulative packet size per connected master and slave (bytes)
system.membus.pkt_size::total                10929792                       # Cumulative packet size per connected master and slave (bytes)
system.membus.snoops                                0                       # Total snoops (count)
system.membus.snoopTraffic                          0                       # Total snoop traffic (bytes)
system.membus.snoop_fanout::samples            158203                       # Request fanout histogram
system.membus.snoop_fanout::mean                    0                       # Request fanout histogram
system.membus.snoop_fanout::stdev                   0                       # Request fanout histogram
system.membus.snoop_fanout::underflows              0      0.00%      0.00% # Request fanout histogram
system.membus.snoop_fanout::0                  158203    100.00%    100.00% # Request fanout histogram
system.membus.snoop_fanout::1                       0      0.00%    100.00% # Request fanout histogram
system.membus.snoop_fanout::overflows               0      0.00%    100.00% # Request fanout histogram
system.membus.snoop_fanout::min_value               0                       # Request fanout histogram
system.membus.snoop_fanout::max_value               0                       # Request fanout histogram
system.membus.snoop_fanout::total              158203                       # Request fanout histogram
system.membus.reqLayer2.occupancy           396285500                       # Layer occupancy (ticks)
system.membus.reqLayer2.utilization               4.4                       # Layer utilization (%)
system.membus.respLayer1.occupancy          844925500                       # Layer occupancy (ticks)
system.membus.respLayer1.utilization              9.5                       # Layer utilization (%)
system.switch_cpus.pwrStateResidencyTicks::OFF   8915801250                       # Cumulative time (in ticks) in various power states
system.switch_cpus.dtb.walker.pwrStateResidencyTicks::UNDEFINED 270776195855000                       # Cumulative time (in ticks) in various power states
system.switch_cpus.itb.walker.pwrStateResidencyTicks::UNDEFINED 270776195855000                       # Cumulative time (in ticks) in various power states
system.tol2bus.pwrStateResidencyTicks::UNDEFINED 270776195855000                       # Cumulative time (in ticks) in various power states
system.tol2bus.trans_dist::ReadResp            172552                       # Transaction distribution
system.tol2bus.trans_dist::WritebackDirty        49319                       # Transaction distribution
system.tol2bus.trans_dist::WritebackClean          171                       # Transaction distribution
system.tol2bus.trans_dist::CleanEvict          301083                       # Transaction distribution
system.tol2bus.trans_dist::ReadExReq            12343                       # Transaction distribution
system.tol2bus.trans_dist::ReadExResp           12343                       # Transaction distribution
system.tol2bus.trans_dist::ReadCleanReq           459                       # Transaction distribution
system.tol2bus.trans_dist::ReadSharedReq       172094                       # Transaction distribution
system.tol2bus.pkt_count_system.cpu.icache.mem_side::system.l2.cpu_side         1089                       # Packet count per connected master and slave (bytes)
system.tol2bus.pkt_count_system.cpu.dcache.mem_side::system.l2.cpu_side       552285                       # Packet count per connected master and slave (bytes)
system.tol2bus.pkt_count::total                553374                       # Packet count per connected master and slave (bytes)
system.tol2bus.pkt_size_system.cpu.icache.mem_side::system.l2.cpu_side        40320                       # Cumulative packet size per connected master and slave (bytes)
system.tol2bus.pkt_size_system.cpu.dcache.mem_side::system.l2.cpu_side     14155456                       # Cumulative packet size per connected master and slave (bytes)
system.tol2bus.pkt_size::total               14195776                       # Cumulative packet size per connected master and slave (bytes)
system.tol2bus.snoops                          166990                       # Total snoops (count)
system.tol2bus.snoopTraffic                    804864                       # Total snoop traffic (bytes)
system.tol2bus.snoop_fanout::samples           351886                       # Request fanout histogram
system.tol2bus.snoop_fanout::mean            0.409422                       # Request fanout histogram
system.tol2bus.snoop_fanout::stdev           0.491728                       # Request fanout histogram
system.tol2bus.snoop_fanout::underflows             0      0.00%      0.00% # Request fanout histogram
system.tol2bus.snoop_fanout::0                 207816     59.06%     59.06% # Request fanout histogram
system.tol2bus.snoop_fanout::1                 144070     40.94%    100.00% # Request fanout histogram
system.tol2bus.snoop_fanout::2                      0      0.00%    100.00% # Request fanout histogram
system.tol2bus.snoop_fanout::3                      0      0.00%    100.00% # Request fanout histogram
system.tol2bus.snoop_fanout::4                      0      0.00%    100.00% # Request fanout histogram
system.tol2bus.snoop_fanout::overflows              0      0.00%    100.00% # Request fanout histogram
system.tol2bus.snoop_fanout::min_value              0                       # Request fanout histogram
system.tol2bus.snoop_fanout::max_value              1                       # Request fanout histogram
system.tol2bus.snoop_fanout::total             351886                       # Request fanout histogram
system.tol2bus.reqLayer0.occupancy          221151000                       # Layer occupancy (ticks)
system.tol2bus.reqLayer0.utilization              2.5                       # Layer utilization (%)
system.tol2bus.respLayer1.occupancy         276649500                       # Layer occupancy (ticks)
system.tol2bus.respLayer1.utilization             3.1                       # Layer utilization (%)
system.tol2bus.respLayer0.occupancy            685500                       # Layer occupancy (ticks)
system.tol2bus.respLayer0.utilization             0.0                       # Layer utilization (%)
system.voltage_domain.voltage                       1                       # Voltage in Volts
system.clk_domain.clock                          1000                       # Clock period in ticks
system.l2.pwrStateResidencyTicks::UNDEFINED 270776195855000                       # Cumulative time (in ticks) in various power states
system.l2.demand_hits::.switch_cpus.inst           18                       # number of demand (read+write) hits
system.l2.demand_hits::.switch_cpus.data        26675                       # number of demand (read+write) hits
system.l2.demand_hits::total                    26693                       # number of demand (read+write) hits
system.l2.overall_hits::.switch_cpus.inst           18                       # number of overall hits
system.l2.overall_hits::.switch_cpus.data        26675                       # number of overall hits
system.l2.overall_hits::total                   26693                       # number of overall hits
system.l2.demand_misses::.cpu.inst                  2                       # number of demand (read+write) misses
system.l2.demand_misses::.cpu.data                  3                       # number of demand (read+write) misses
system.l2.demand_misses::.switch_cpus.inst          439                       # number of demand (read+write) misses
system.l2.demand_misses::.switch_cpus.data       157759                       # number of demand (read+write) misses
system.l2.demand_misses::total                 158203                       # number of demand (read+write) misses
system.l2.overall_misses::.cpu.inst                 2                       # number of overall misses
system.l2.overall_misses::.cpu.data                 3                       # number of overall misses
system.l2.overall_misses::.switch_cpus.inst          439                       # number of overall misses
system.l2.overall_misses::.switch_cpus.data       157759                       # number of overall misses
system.l2.overall_misses::total                158203                       # number of overall misses
system.l2.demand_miss_latency::.switch_cpus.inst     39617500                       # number of demand (read+write) miss cycles
system.l2.demand_miss_latency::.switch_cpus.data  12821066500                       # number of demand (read+write) miss cycles
system.l2.demand_miss_latency::total      12860684000                       # number of demand (read+write) miss cycles
system.l2.overall_miss_latency::.switch_cpus.inst     39617500                       # number of overall miss cycles
system.l2.overall_miss_latency::.switch_cpus.data  12821066500                       # number of overall miss cycles
system.l2.overall_miss_latency::total     12860684000                       # number of overall miss cycles
system.l2.demand_accesses::.cpu.inst                2                       # number of demand (read+write) accesses
system.l2.demand_accesses::.cpu.data                3                       # number of demand (read+write) accesses
system.l2.demand_accesses::.switch_cpus.inst          457                       # number of demand (read+write) accesses
system.l2.demand_accesses::.switch_cpus.data       184434                       # number of demand (read+write) accesses
system.l2.demand_accesses::total               184896                       # number of demand (read+write) accesses
system.l2.overall_accesses::.cpu.inst               2                       # number of overall (read+write) accesses
system.l2.overall_accesses::.cpu.data               3                       # number of overall (read+write) accesses
system.l2.overall_accesses::.switch_cpus.inst          457                       # number of overall (read+write) accesses
system.l2.overall_accesses::.switch_cpus.data       184434                       # number of overall (read+write) accesses
system.l2.overall_accesses::total              184896                       # number of overall (read+write) accesses
system.l2.demand_miss_rate::.cpu.inst               1                       # miss rate for demand accesses
system.l2.demand_miss_rate::.cpu.data               1                       # miss rate for demand accesses
system.l2.demand_miss_rate::.switch_cpus.inst     0.960613                       # miss rate for demand accesses
system.l2.demand_miss_rate::.switch_cpus.data     0.855368                       # miss rate for demand accesses
system.l2.demand_miss_rate::total            0.855632                       # miss rate for demand accesses
system.l2.overall_miss_rate::.cpu.inst              1                       # miss rate for overall accesses
system.l2.overall_miss_rate::.cpu.data              1                       # miss rate for overall accesses
system.l2.overall_miss_rate::.switch_cpus.inst     0.960613                       # miss rate for overall accesses
system.l2.overall_miss_rate::.switch_cpus.data     0.855368                       # miss rate for overall accesses
system.l2.overall_miss_rate::total           0.855632                       # miss rate for overall accesses
system.l2.demand_avg_miss_latency::.switch_cpus.inst 90244.874715                       # average overall miss latency
system.l2.demand_avg_miss_latency::.switch_cpus.data 81269.952903                       # average overall miss latency
system.l2.demand_avg_miss_latency::total 81292.289021                       # average overall miss latency
system.l2.overall_avg_miss_latency::.switch_cpus.inst 90244.874715                       # average overall miss latency
system.l2.overall_avg_miss_latency::.switch_cpus.data 81269.952903                       # average overall miss latency
system.l2.overall_avg_miss_latency::total 81292.289021                       # average overall miss latency
system.l2.blocked_cycles::no_mshrs                  0                       # number of cycles access was blocked
system.l2.blocked_cycles::no_targets                0                       # number of cycles access was blocked
system.l2.blocked::no_mshrs                         0                       # number of cycles access was blocked
system.l2.blocked::no_targets                       0                       # number of cycles access was blocked
system.l2.avg_blocked_cycles::no_mshrs            nan                       # average number of cycles each access was blocked
system.l2.avg_blocked_cycles::no_targets          nan                       # average number of cycles each access was blocked
system.l2.writebacks::.writebacks               12576                       # number of writebacks
system.l2.writebacks::total                     12576                       # number of writebacks
system.l2.demand_mshr_misses::.switch_cpus.inst          439                       # number of demand (read+write) MSHR misses
system.l2.demand_mshr_misses::.switch_cpus.data       157759                       # number of demand (read+write) MSHR misses
system.l2.demand_mshr_misses::total            158198                       # number of demand (read+write) MSHR misses
system.l2.overall_mshr_misses::.switch_cpus.inst          439                       # number of overall MSHR misses
system.l2.overall_mshr_misses::.switch_cpus.data       157759                       # number of overall MSHR misses
system.l2.overall_mshr_misses::total           158198                       # number of overall MSHR misses
system.l2.demand_mshr_miss_latency::.switch_cpus.inst     35227500                       # number of demand (read+write) MSHR miss cycles
system.l2.demand_mshr_miss_latency::.switch_cpus.data  11243486500                       # number of demand (read+write) MSHR miss cycles
system.l2.demand_mshr_miss_latency::total  11278714000                       # number of demand (read+write) MSHR miss cycles
system.l2.overall_mshr_miss_latency::.switch_cpus.inst     35227500                       # number of overall MSHR miss cycles
system.l2.overall_mshr_miss_latency::.switch_cpus.data  11243486500                       # number of overall MSHR miss cycles
system.l2.overall_mshr_miss_latency::total  11278714000                       # number of overall MSHR miss cycles
system.l2.demand_mshr_miss_rate::.switch_cpus.inst     0.960613                       # mshr miss rate for demand accesses
system.l2.demand_mshr_miss_rate::.switch_cpus.data     0.855368                       # mshr miss rate for demand accesses
system.l2.demand_mshr_miss_rate::total       0.855605                       # mshr miss rate for demand accesses
system.l2.overall_mshr_miss_rate::.switch_cpus.inst     0.960613                       # mshr miss rate for overall accesses
system.l2.overall_mshr_miss_rate::.switch_cpus.data     0.855368                       # mshr miss rate for overall accesses
system.l2.overall_mshr_miss_rate::total      0.855605                       # mshr miss rate for overall accesses
system.l2.demand_avg_mshr_miss_latency::.switch_cpus.inst 80244.874715                       # average overall mshr miss latency
system.l2.demand_avg_mshr_miss_latency::.switch_cpus.data 71270.016291                       # average overall mshr miss latency
system.l2.demand_avg_mshr_miss_latency::total 71294.921554                       # average overall mshr miss latency
system.l2.overall_avg_mshr_miss_latency::.switch_cpus.inst 80244.874715                       # average overall mshr miss latency
system.l2.overall_avg_mshr_miss_latency::.switch_cpus.data 71270.016291                       # average overall mshr miss latency
system.l2.overall_avg_mshr_miss_latency::total 71294.921554                       # average overall mshr miss latency
system.l2.replacements                         166990                       # number of replacements
system.l2.WritebackDirty_hits::.writebacks        36743                       # number of WritebackDirty hits
system.l2.WritebackDirty_hits::total            36743                       # number of WritebackDirty hits
system.l2.WritebackDirty_accesses::.writebacks        36743                       # number of WritebackDirty accesses(hits+misses)
system.l2.WritebackDirty_accesses::total        36743                       # number of WritebackDirty accesses(hits+misses)
system.l2.WritebackClean_hits::.writebacks          171                       # number of WritebackClean hits
system.l2.WritebackClean_hits::total              171                       # number of WritebackClean hits
system.l2.WritebackClean_accesses::.writebacks          171                       # number of WritebackClean accesses(hits+misses)
system.l2.WritebackClean_accesses::total          171                       # number of WritebackClean accesses(hits+misses)
system.l2.CleanEvict_mshr_misses::.writebacks       130435                       # number of CleanEvict MSHR misses
system.l2.CleanEvict_mshr_misses::total        130435                       # number of CleanEvict MSHR misses
system.l2.CleanEvict_mshr_miss_rate::.writebacks          inf                       # mshr miss rate for CleanEvict accesses
system.l2.CleanEvict_mshr_miss_rate::total          inf                       # mshr miss rate for CleanEvict accesses
system.l2.ReadExReq_hits::.switch_cpus.data         3319                       # number of ReadExReq hits
system.l2.ReadExReq_hits::total                  3319                       # number of ReadExReq hits
system.l2.ReadExReq_misses::.cpu.data               1                       # number of ReadExReq misses
system.l2.ReadExReq_misses::.switch_cpus.data         9023                       # number of ReadExReq misses
system.l2.ReadExReq_misses::total                9024                       # number of ReadExReq misses
system.l2.ReadExReq_miss_latency::.switch_cpus.data    712077000                       # number of ReadExReq miss cycles
system.l2.ReadExReq_miss_latency::total     712077000                       # number of ReadExReq miss cycles
system.l2.ReadExReq_accesses::.cpu.data             1                       # number of ReadExReq accesses(hits+misses)
system.l2.ReadExReq_accesses::.switch_cpus.data        12342                       # number of ReadExReq accesses(hits+misses)
system.l2.ReadExReq_accesses::total             12343                       # number of ReadExReq accesses(hits+misses)
system.l2.ReadExReq_miss_rate::.cpu.data            1                       # miss rate for ReadExReq accesses
system.l2.ReadExReq_miss_rate::.switch_cpus.data     0.731081                       # miss rate for ReadExReq accesses
system.l2.ReadExReq_miss_rate::total         0.731103                       # miss rate for ReadExReq accesses
system.l2.ReadExReq_avg_miss_latency::.switch_cpus.data 78917.987366                       # average ReadExReq miss latency
system.l2.ReadExReq_avg_miss_latency::total 78909.242021                       # average ReadExReq miss latency
system.l2.ReadExReq_mshr_misses::.switch_cpus.data         9023                       # number of ReadExReq MSHR misses
system.l2.ReadExReq_mshr_misses::total           9023                       # number of ReadExReq MSHR misses
system.l2.ReadExReq_mshr_miss_latency::.switch_cpus.data    621847000                       # number of ReadExReq MSHR miss cycles
system.l2.ReadExReq_mshr_miss_latency::total    621847000                       # number of ReadExReq MSHR miss cycles
system.l2.ReadExReq_mshr_miss_rate::.switch_cpus.data     0.731081                       # mshr miss rate for ReadExReq accesses
system.l2.ReadExReq_mshr_miss_rate::total     0.731022                       # mshr miss rate for ReadExReq accesses
system.l2.ReadExReq_avg_mshr_miss_latency::.switch_cpus.data 68917.987366                       # average ReadExReq mshr miss latency
system.l2.ReadExReq_avg_mshr_miss_latency::total 68917.987366                       # average ReadExReq mshr miss latency
system.l2.ReadCleanReq_hits::.switch_cpus.inst           18                       # number of ReadCleanReq hits
system.l2.ReadCleanReq_hits::total                 18                       # number of ReadCleanReq hits
system.l2.ReadCleanReq_misses::.cpu.inst            2                       # number of ReadCleanReq misses
system.l2.ReadCleanReq_misses::.switch_cpus.inst          439                       # number of ReadCleanReq misses
system.l2.ReadCleanReq_misses::total              441                       # number of ReadCleanReq misses
system.l2.ReadCleanReq_miss_latency::.switch_cpus.inst     39617500                       # number of ReadCleanReq miss cycles
system.l2.ReadCleanReq_miss_latency::total     39617500                       # number of ReadCleanReq miss cycles
system.l2.ReadCleanReq_accesses::.cpu.inst            2                       # number of ReadCleanReq accesses(hits+misses)
system.l2.ReadCleanReq_accesses::.switch_cpus.inst          457                       # number of ReadCleanReq accesses(hits+misses)
system.l2.ReadCleanReq_accesses::total            459                       # number of ReadCleanReq accesses(hits+misses)
system.l2.ReadCleanReq_miss_rate::.cpu.inst            1                       # miss rate for ReadCleanReq accesses
system.l2.ReadCleanReq_miss_rate::.switch_cpus.inst     0.960613                       # miss rate for ReadCleanReq accesses
system.l2.ReadCleanReq_miss_rate::total      0.960784                       # miss rate for ReadCleanReq accesses
system.l2.ReadCleanReq_avg_miss_latency::.switch_cpus.inst 90244.874715                       # average ReadCleanReq miss latency
[...]
system.cpu.itb.walker.pwrStateResidencyTicks::UNDEFINED 270802665252000                       # Cumulative time (in ticks) in various power states
system.cpu.dtb_walker_cache.pwrStateResidencyTicks::UNDEFINED 270802665252000                       # Cumulative time (in ticks) in various power states
system.cpu.dtb_walker_cache.blocked_cycles::no_mshrs            0                       # number of cycles access was blocked
system.cpu.dtb_walker_cache.blocked_cycles::no_targets            0                       # number of cycles access was blocked
system.cpu.dtb_walker_cache.blocked::no_mshrs            0                       # number of cycles access was blocked
system.cpu.dtb_walker_cache.blocked::no_targets            0                       # number of cycles access was blocked
system.cpu.dtb_walker_cache.avg_blocked_cycles::no_mshrs          nan                       # average number of cycles each access was blocked
system.cpu.dtb_walker_cache.avg_blocked_cycles::no_targets          nan                       # average number of cycles each access was blocked
system.cpu.dtb_walker_cache.replacements            0                       # number of replacements
system.cpu.dtb_walker_cache.tags.pwrStateResidencyTicks::UNDEFINED 270802665252000                       # Cumulative time (in ticks) in various power states
system.cpu.dtb_walker_cache.tags.tagsinuse            0                       # Cycle average of tags in use
system.cpu.dtb_walker_cache.tags.total_refs            0                       # Total number of references to valid blocks.
system.cpu.dtb_walker_cache.tags.sampled_refs            0                       # Sample count of references to valid blocks.
system.cpu.dtb_walker_cache.tags.avg_refs          nan                       # Average number of references to valid blocks.
system.cpu.dtb_walker_cache.tags.warmup_cycle            0                       # Cycle when the warmup percentage was hit.
system.cpu.dtb_walker_cache.tags.tag_accesses            0                       # Number of tag accesses
system.cpu.dtb_walker_cache.tags.data_accesses            0                       # Number of data accesses
system.cpu.dcache.pwrStateResidencyTicks::UNDEFINED 270802665252000                       # Cumulative time (in ticks) in various power states
system.cpu.dcache.demand_hits::.cpu.data            3                       # number of demand (read+write) hits
system.cpu.dcache.demand_hits::.switch_cpus.data     10243523                       # number of demand (read+write) hits
system.cpu.dcache.demand_hits::total         10243526                       # number of demand (read+write) hits
system.cpu.dcache.overall_hits::.cpu.data            3                       # number of overall hits
system.cpu.dcache.overall_hits::.switch_cpus.data     10259593                       # number of overall hits
system.cpu.dcache.overall_hits::total        10259596                       # number of overall hits
system.cpu.dcache.demand_misses::.cpu.data            3                       # number of demand (read+write) misses
system.cpu.dcache.demand_misses::.switch_cpus.data      3058328                       # number of demand (read+write) misses
system.cpu.dcache.demand_misses::total        3058331                       # number of demand (read+write) misses
system.cpu.dcache.overall_misses::.cpu.data            3                       # number of overall misses
system.cpu.dcache.overall_misses::.switch_cpus.data      3058666                       # number of overall misses
system.cpu.dcache.overall_misses::total       3058669                       # number of overall misses
system.cpu.dcache.demand_miss_latency::.switch_cpus.data 204612144421                       # number of demand (read+write) miss cycles
system.cpu.dcache.demand_miss_latency::total 204612144421                       # number of demand (read+write) miss cycles
system.cpu.dcache.overall_miss_latency::.switch_cpus.data 204612144421                       # number of overall miss cycles
system.cpu.dcache.overall_miss_latency::total 204612144421                       # number of overall miss cycles
system.cpu.dcache.demand_accesses::.cpu.data            6                       # number of demand (read+write) accesses
system.cpu.dcache.demand_accesses::.switch_cpus.data     13301851                       # number of demand (read+write) accesses
system.cpu.dcache.demand_accesses::total     13301857                       # number of demand (read+write) accesses
system.cpu.dcache.overall_accesses::.cpu.data            6                       # number of overall (read+write) accesses
system.cpu.dcache.overall_accesses::.switch_cpus.data     13318259                       # number of overall (read+write) accesses
system.cpu.dcache.overall_accesses::total     13318265                       # number of overall (read+write) accesses
system.cpu.dcache.demand_miss_rate::.cpu.data     0.500000                       # miss rate for demand accesses
system.cpu.dcache.demand_miss_rate::.switch_cpus.data     0.229917                       # miss rate for demand accesses
system.cpu.dcache.demand_miss_rate::total     0.229918                       # miss rate for demand accesses
system.cpu.dcache.overall_miss_rate::.cpu.data     0.500000                       # miss rate for overall accesses
system.cpu.dcache.overall_miss_rate::.switch_cpus.data     0.229660                       # miss rate for overall accesses
system.cpu.dcache.overall_miss_rate::total     0.229660                       # miss rate for overall accesses
system.cpu.dcache.demand_avg_miss_latency::.switch_cpus.data 66903.270160                       # average overall miss latency
system.cpu.dcache.demand_avg_miss_latency::total 66903.204532                       # average overall miss latency
system.cpu.dcache.overall_avg_miss_latency::.switch_cpus.data 66895.876968                       # average overall miss latency
system.cpu.dcache.overall_avg_miss_latency::total 66895.811355                       # average overall miss latency
system.cpu.dcache.blocked_cycles::no_mshrs      3079055                       # number of cycles access was blocked
system.cpu.dcache.blocked_cycles::no_targets          235                       # number of cycles access was blocked
system.cpu.dcache.blocked::no_mshrs             95618                       # number of cycles access was blocked
system.cpu.dcache.blocked::no_targets               3                       # number of cycles access was blocked
system.cpu.dcache.avg_blocked_cycles::no_mshrs    32.201625                       # average number of cycles each access was blocked
system.cpu.dcache.avg_blocked_cycles::no_targets    78.333333                       # average number of cycles each access was blocked
system.cpu.dcache.writebacks::.writebacks       170047                       # number of writebacks
system.cpu.dcache.writebacks::total            170047                       # number of writebacks
system.cpu.dcache.demand_mshr_hits::.switch_cpus.data      2304255                       # number of demand (read+write) MSHR hits
system.cpu.dcache.demand_mshr_hits::total      2304255                       # number of demand (read+write) MSHR hits
system.cpu.dcache.overall_mshr_hits::.switch_cpus.data      2304255                       # number of overall MSHR hits
system.cpu.dcache.overall_mshr_hits::total      2304255                       # number of overall MSHR hits
system.cpu.dcache.demand_mshr_misses::.switch_cpus.data       754073                       # number of demand (read+write) MSHR misses
system.cpu.dcache.demand_mshr_misses::total       754073                       # number of demand (read+write) MSHR misses
system.cpu.dcache.overall_mshr_misses::.switch_cpus.data       754229                       # number of overall MSHR misses
system.cpu.dcache.overall_mshr_misses::total       754229                       # number of overall MSHR misses
system.cpu.dcache.demand_mshr_miss_latency::.switch_cpus.data  53618492426                       # number of demand (read+write) MSHR miss cycles
system.cpu.dcache.demand_mshr_miss_latency::total  53618492426                       # number of demand (read+write) MSHR miss cycles
system.cpu.dcache.overall_mshr_miss_latency::.switch_cpus.data  53627079426                       # number of overall MSHR miss cycles
system.cpu.dcache.overall_mshr_miss_latency::total  53627079426                       # number of overall MSHR miss cycles
system.cpu.dcache.demand_mshr_miss_rate::.switch_cpus.data     0.056689                       # mshr miss rate for demand accesses
system.cpu.dcache.demand_mshr_miss_rate::total     0.056689                       # mshr miss rate for demand accesses
system.cpu.dcache.overall_mshr_miss_rate::.switch_cpus.data     0.056631                       # mshr miss rate for overall accesses
system.cpu.dcache.overall_mshr_miss_rate::total     0.056631                       # mshr miss rate for overall accesses
system.cpu.dcache.demand_avg_mshr_miss_latency::.switch_cpus.data 71105.174732                       # average overall mshr miss latency
system.cpu.dcache.demand_avg_mshr_miss_latency::total 71105.174732                       # average overall mshr miss latency
system.cpu.dcache.overall_avg_mshr_miss_latency::.switch_cpus.data 71101.852920                       # average overall mshr miss latency
system.cpu.dcache.overall_avg_mshr_miss_latency::total 71101.852920                       # average overall mshr miss latency
system.cpu.dcache.replacements                 753208                       # number of replacements
system.cpu.dcache.ReadReq_hits::.cpu.data            3                       # number of ReadReq hits
system.cpu.dcache.ReadReq_hits::.switch_cpus.data      9040481                       # number of ReadReq hits
system.cpu.dcache.ReadReq_hits::total         9040484                       # number of ReadReq hits
system.cpu.dcache.ReadReq_misses::.cpu.data            2                       # number of ReadReq misses
system.cpu.dcache.ReadReq_misses::.switch_cpus.data      3011776                       # number of ReadReq misses
system.cpu.dcache.ReadReq_misses::total       3011778                       # number of ReadReq misses
system.cpu.dcache.ReadReq_miss_latency::.switch_cpus.data 201826252500                       # number of ReadReq miss cycles
system.cpu.dcache.ReadReq_miss_latency::total 201826252500                       # number of ReadReq miss cycles
system.cpu.dcache.ReadReq_accesses::.cpu.data            5                       # number of ReadReq accesses(hits+misses)
system.cpu.dcache.ReadReq_accesses::.switch_cpus.data     12052257                       # number of ReadReq accesses(hits+misses)
system.cpu.dcache.ReadReq_accesses::total     12052262                       # number of ReadReq accesses(hits+misses)
system.cpu.dcache.ReadReq_miss_rate::.cpu.data     0.400000                       # miss rate for ReadReq accesses
system.cpu.dcache.ReadReq_miss_rate::.switch_cpus.data     0.249893                       # miss rate for ReadReq accesses
system.cpu.dcache.ReadReq_miss_rate::total     0.249893                       # miss rate for ReadReq accesses
system.cpu.dcache.ReadReq_avg_miss_latency::.switch_cpus.data 67012.371604                       # average ReadReq miss latency
system.cpu.dcache.ReadReq_avg_miss_latency::total 67012.327104                       # average ReadReq miss latency
system.cpu.dcache.ReadReq_mshr_hits::.switch_cpus.data      2303994                       # number of ReadReq MSHR hits
system.cpu.dcache.ReadReq_mshr_hits::total      2303994                       # number of ReadReq MSHR hits
system.cpu.dcache.ReadReq_mshr_misses::.switch_cpus.data       707782                       # number of ReadReq MSHR misses
system.cpu.dcache.ReadReq_mshr_misses::total       707782                       # number of ReadReq MSHR misses
system.cpu.dcache.ReadReq_mshr_miss_latency::.switch_cpus.data  50891280000                       # number of ReadReq MSHR miss cycles
system.cpu.dcache.ReadReq_mshr_miss_latency::total  50891280000                       # number of ReadReq MSHR miss cycles
system.cpu.dcache.ReadReq_mshr_miss_rate::.switch_cpus.data     0.058726                       # mshr miss rate for ReadReq accesses
system.cpu.dcache.ReadReq_mshr_miss_rate::total     0.058726                       # mshr miss rate for ReadReq accesses
system.cpu.dcache.ReadReq_avg_mshr_miss_latency::.switch_cpus.data 71902.478447                       # average ReadReq mshr miss latency
system.cpu.dcache.ReadReq_avg_mshr_miss_latency::total 71902.478447                       # average ReadReq mshr miss latency
system.cpu.dcache.WriteReq_hits::.switch_cpus.data      1203042                       # number of WriteReq hits
system.cpu.dcache.WriteReq_hits::total        1203042                       # number of WriteReq hits
system.cpu.dcache.WriteReq_misses::.cpu.data            1                       # number of WriteReq misses
system.cpu.dcache.WriteReq_misses::.switch_cpus.data        46552                       # number of WriteReq misses
system.cpu.dcache.WriteReq_misses::total        46553                       # number of WriteReq misses
system.cpu.dcache.WriteReq_miss_latency::.switch_cpus.data   2785891921                       # number of WriteReq miss cycles
system.cpu.dcache.WriteReq_miss_latency::total   2785891921                       # number of WriteReq miss cycles
system.cpu.dcache.WriteReq_accesses::.cpu.data            1                       # number of WriteReq accesses(hits+misses)
system.cpu.dcache.WriteReq_accesses::.switch_cpus.data      1249594                       # number of WriteReq accesses(hits+misses)
system.cpu.dcache.WriteReq_accesses::total      1249595                       # number of WriteReq accesses(hits+misses)
system.cpu.dcache.WriteReq_miss_rate::.cpu.data            1                       # miss rate for WriteReq accesses
system.cpu.dcache.WriteReq_miss_rate::.switch_cpus.data     0.037254                       # miss rate for WriteReq accesses
system.cpu.dcache.WriteReq_miss_rate::total     0.037254                       # miss rate for WriteReq accesses
system.cpu.dcache.WriteReq_avg_miss_latency::.switch_cpus.data 59844.731075                       # average WriteReq miss latency
system.cpu.dcache.WriteReq_avg_miss_latency::total 59843.445557                       # average WriteReq miss latency
system.cpu.dcache.WriteReq_mshr_hits::.switch_cpus.data          261                       # number of WriteReq MSHR hits
system.cpu.dcache.WriteReq_mshr_hits::total          261                       # number of WriteReq MSHR hits
system.cpu.dcache.WriteReq_mshr_misses::.switch_cpus.data        46291                       # number of WriteReq MSHR misses
system.cpu.dcache.WriteReq_mshr_misses::total        46291                       # number of WriteReq MSHR misses
system.cpu.dcache.WriteReq_mshr_miss_latency::.switch_cpus.data   2727212426                       # number of WriteReq MSHR miss cycles
system.cpu.dcache.WriteReq_mshr_miss_latency::total   2727212426                       # number of WriteReq MSHR miss cycles
system.cpu.dcache.WriteReq_mshr_miss_rate::.switch_cpus.data     0.037045                       # mshr miss rate for WriteReq accesses
system.cpu.dcache.WriteReq_mshr_miss_rate::total     0.037045                       # mshr miss rate for WriteReq accesses
system.cpu.dcache.WriteReq_avg_mshr_miss_latency::.switch_cpus.data 58914.528224                       # average WriteReq mshr miss latency
system.cpu.dcache.WriteReq_avg_mshr_miss_latency::total 58914.528224                       # average WriteReq mshr miss latency
system.cpu.dcache.SoftPFReq_hits::.switch_cpus.data        16070                       # number of SoftPFReq hits
system.cpu.dcache.SoftPFReq_hits::total         16070                       # number of SoftPFReq hits
system.cpu.dcache.SoftPFReq_misses::.switch_cpus.data          338                       # number of SoftPFReq misses
system.cpu.dcache.SoftPFReq_misses::total          338                       # number of SoftPFReq misses
system.cpu.dcache.SoftPFReq_accesses::.switch_cpus.data        16408                       # number of SoftPFReq accesses(hits+misses)
system.cpu.dcache.SoftPFReq_accesses::total        16408                       # number of SoftPFReq accesses(hits+misses)
system.cpu.dcache.SoftPFReq_miss_rate::.switch_cpus.data     0.020600                       # miss rate for SoftPFReq accesses
system.cpu.dcache.SoftPFReq_miss_rate::total     0.020600                       # miss rate for SoftPFReq accesses
system.cpu.dcache.SoftPFReq_mshr_misses::.switch_cpus.data          156                       # number of SoftPFReq MSHR misses
system.cpu.dcache.SoftPFReq_mshr_misses::total          156                       # number of SoftPFReq MSHR misses
system.cpu.dcache.SoftPFReq_mshr_miss_latency::.switch_cpus.data      8587000                       # number of SoftPFReq MSHR miss cycles
system.cpu.dcache.SoftPFReq_mshr_miss_latency::total      8587000                       # number of SoftPFReq MSHR miss cycles
system.cpu.dcache.SoftPFReq_mshr_miss_rate::.switch_cpus.data     0.009508                       # mshr miss rate for SoftPFReq accesses
system.cpu.dcache.SoftPFReq_mshr_miss_rate::total     0.009508                       # mshr miss rate for SoftPFReq accesses
system.cpu.dcache.SoftPFReq_avg_mshr_miss_latency::.switch_cpus.data 55044.871795                       # average SoftPFReq mshr miss latency
system.cpu.dcache.SoftPFReq_avg_mshr_miss_latency::total 55044.871795                       # average SoftPFReq mshr miss latency
system.cpu.dcache.tags.pwrStateResidencyTicks::UNDEFINED 270802665252000                       # Cumulative time (in ticks) in various power states
system.cpu.dcache.tags.tagsinuse             0.133682                       # Cycle average of tags in use
system.cpu.dcache.tags.total_refs            11013828                       # Total number of references to valid blocks.
system.cpu.dcache.tags.sampled_refs            754232                       # Sample count of references to valid blocks.
system.cpu.dcache.tags.avg_refs             14.602706                       # Average number of references to valid blocks.
system.cpu.dcache.tags.warmup_cycle      270767280054500                       # Cycle when the warmup percentage was hit.
system.cpu.dcache.tags.occ_blocks::.cpu.data     0.000002                       # Average occupied blocks per requestor
system.cpu.dcache.tags.occ_blocks::.switch_cpus.data     0.133680                       # Average occupied blocks per requestor
system.cpu.dcache.tags.occ_percent::.cpu.data     0.000000                       # Average percentage of cache occupancy
system.cpu.dcache.tags.occ_percent::.switch_cpus.data     0.000131                       # Average percentage of cache occupancy
system.cpu.dcache.tags.occ_percent::total     0.000131                       # Average percentage of cache occupancy
system.cpu.dcache.tags.occ_task_id_blocks::1024         1024                       # Occupied blocks per task id
system.cpu.dcache.tags.age_task_id_blocks_1024::0          209                       # Occupied blocks per task id
system.cpu.dcache.tags.age_task_id_blocks_1024::1          812                       # Occupied blocks per task id
system.cpu.dcache.tags.age_task_id_blocks_1024::3            3                       # Occupied blocks per task id
system.cpu.dcache.tags.occ_task_id_percent::1024            1                       # Percentage of cache occupancy per task id
system.cpu.dcache.tags.tag_accesses          27390762                       # Number of tag accesses
system.cpu.dcache.tags.data_accesses         27390762                       # Number of data accesses

---------- End Simulation Statistics   ----------
