
---------- Begin Simulation Statistics ----------
final_tick                               190186360358000                       # Number of ticks from beginning of simulation (restored from checkpoints and never reset)
host_inst_rate                                  20484                       # Simulator instruction rate (inst/s)
host_mem_usage                                 827520                       # Number of bytes of host memory used
host_op_rate                                    35978                       # Simulator op (including micro ops) rate (op/s)
host_seconds                                   488.19                       # Real time elapsed on the host
host_tick_rate                               73384890                       # Simulator tick rate (ticks/s)
sim_freq                                 1000000000000                       # Frequency of simulated ticks
sim_insts                                    10000010                       # Number of instructions simulated
sim_ops                                      17564243                       # Number of ops (including micro ops) simulated
sim_seconds                                  0.035826                       # Number of seconds simulated
sim_ticks                                 35826089250                       # Number of ticks simulated
system.cpu.Branches                                 4                       # Number of branches fetched
system.cpu.committedInsts                          10                       # Number of instructions committed
system.cpu.committedOps                            20                       # Number of ops (including micro ops) committed
system.cpu.dtb.rdAccesses                           2                       # TLB accesses on read requests
system.cpu.dtb.rdMisses                             1                       # TLB misses on read requests
system.cpu.dtb.wrAccesses                           0                       # TLB accesses on write requests
system.cpu.dtb.wrMisses                             0                       # TLB misses on write requests
system.cpu.idle_fraction                            0                       # Percentage of idle cycles
system.cpu.itb.rdAccesses                           0                       # TLB accesses on read requests
system.cpu.itb.rdMisses                             0                       # TLB misses on read requests
system.cpu.itb.wrAccesses                          12                       # TLB accesses on write requests
system.cpu.itb.wrMisses                             0                       # TLB misses on write requests
system.cpu.not_idle_fraction                        1                       # Percentage of non-idle cycles
system.cpu.numCycles                               22                       # number of cpu cycles simulated
system.cpu.numWorkItemsCompleted                    0                       # number of work items this cpu completed
system.cpu.numWorkItemsStarted                      0                       # number of work items this cpu started
system.cpu.num_busy_cycles                         22                       # Number of busy cycles
system.cpu.num_cc_register_reads                   21                       # number of times the CC registers were read
system.cpu.num_cc_register_writes                  10                       # number of times the CC registers were written
system.cpu.num_conditional_control_insts            4                       # number of instructions that are conditional controls
system.cpu.num_fp_alu_accesses                      0                       # Number of float alu accesses
system.cpu.num_fp_insts                             0                       # number of float instructions
system.cpu.num_fp_register_reads                    0                       # number of times the floating registers were read
system.cpu.num_fp_register_writes                   0                       # number of times the floating registers were written
system.cpu.num_func_calls                           0                       # number of times a function call or return occured
system.cpu.num_idle_cycles                          0                       # Number of idle cycles
system.cpu.num_int_alu_accesses                    20                       # Number of integer alu accesses
system.cpu.num_int_insts                           20                       # number of integer instructions
system.cpu.num_int_register_reads                  32                       # number of times the integer registers were read
system.cpu.num_int_register_writes                 16                       # number of times the integer registers were written
system.cpu.num_load_insts                           2                       # Number of load instructions
system.cpu.num_mem_refs                             2                       # number of memory refs
system.cpu.num_store_insts                          0                       # Number of store instructions
system.cpu.num_vec_alu_accesses                     0                       # Number of vector alu accesses
system.cpu.num_vec_insts                            0                       # number of vector instructions
system.cpu.num_vec_register_reads                   0                       # number of times the vector registers were read
system.cpu.num_vec_register_writes                  0                       # number of times the vector registers were written
system.cpu.op_class::No_OpClass                     0      0.00%      0.00% # Class of executed instruction
system.cpu.op_class::IntAlu                        18     90.00%     90.00% # Class of executed instruction
system.cpu.op_class::IntMult                        0      0.00%     90.00% # Class of executed instruction
system.cpu.op_class::IntDiv                         0      0.00%     90.00% # Class of executed instruction
system.cpu.op_class::FloatAdd                       0      0.00%     90.00% # Class of executed instruction
system.cpu.op_class::FloatCmp                       0      0.00%     90.00% # Class of executed instruction
system.cpu.op_class::FloatCvt                       0      0.00%     90.00% # Class of executed instruction
system.cpu.op_class::FloatMult                      0      0.00%     90.00% # Class of executed instruction
system.cpu.op_class::FloatMultAcc                   0      0.00%     90.00% # Class of executed instruction
system.cpu.op_class::FloatDiv                       0      0.00%     90.00% # Class of executed instruction
system.cpu.op_class::FloatMisc                      0      0.00%     90.00% # Class of executed instruction
system.cpu.op_class::FloatSqrt                      0      0.00%     90.00% # Class of executed instruction
system.cpu.op_class::SimdAdd                        0      0.00%     90.00% # Class of executed instruction
system.cpu.op_class::SimdAddAcc                     0      0.00%     90.00% # Class of executed instruction
system.cpu.op_class::SimdAlu                        0      0.00%     90.00% # Class of executed instruction
system.cpu.op_class::SimdCmp                        0      0.00%     90.00% # Class of executed instruction
system.cpu.op_class::SimdCvt                        0      0.00%     90.00% # Class of executed instruction
system.cpu.op_class::SimdMisc                       0      0.00%     90.00% # Class of executed instruction
system.cpu.op_class::SimdMult                       0      0.00%     90.00% # Class of executed instruction
system.cpu.op_class::SimdMultAcc                    0      0.00%     90.00% # Class of executed instruction
system.cpu.op_class::SimdShift                      0      0.00%     90.00% # Class of executed instruction
system.cpu.op_class::SimdShiftAcc                   0      0.00%     90.00% # Class of executed instruction
system.cpu.op_class::SimdDiv                        0      0.00%     90.00% # Class of executed instruction
system.cpu.op_class::SimdSqrt                       0      0.00%     90.00% # Class of executed instruction
system.cpu.op_class::SimdFloatAdd                   0      0.00%     90.00% # Class of executed instruction
system.cpu.op_class::SimdFloatAlu                   0      0.00%     90.00% # Class of executed instruction
system.cpu.op_class::SimdFloatCmp                   0      0.00%     90.00% # Class of executed instruction
system.cpu.op_class::SimdFloatCvt                   0      0.00%     90.00% # Class of executed instruction
system.cpu.op_class::SimdFloatDiv                   0      0.00%     90.00% # Class of executed instruction
system.cpu.op_class::SimdFloatMisc                  0      0.00%     90.00% # Class of executed instruction
system.cpu.op_class::SimdFloatMult                  0      0.00%     90.00% # Class of executed instruction
system.cpu.op_class::SimdFloatMultAcc               0      0.00%     90.00% # Class of executed instruction
system.cpu.op_class::SimdFloatSqrt                  0      0.00%     90.00% # Class of executed instruction
system.cpu.op_class::SimdReduceAdd                  0      0.00%     90.00% # Class of executed instruction
system.cpu.op_class::SimdReduceAlu                  0      0.00%     90.00% # Class of executed instruction
system.cpu.op_class::SimdReduceCmp                  0      0.00%     90.00% # Class of executed instruction
system.cpu.op_class::SimdFloatReduceAdd             0      0.00%     90.00% # Class of executed instruction
system.cpu.op_class::SimdFloatReduceCmp             0      0.00%     90.00% # Class of executed instruction
system.cpu.op_class::SimdAes                        0      0.00%     90.00% # Class of executed instruction
system.cpu.op_class::SimdAesMix                     0      0.00%     90.00% # Class of executed instruction
system.cpu.op_class::SimdSha1Hash                   0      0.00%     90.00% # Class of executed instruction
system.cpu.op_class::SimdSha1Hash2                  0      0.00%     90.00% # Class of executed instruction
system.cpu.op_class::SimdSha256Hash                 0      0.00%     90.00% # Class of executed instruction
system.cpu.op_class::SimdSha256Hash2                0      0.00%     90.00% # Class of executed instruction
system.cpu.op_class::SimdShaSigma2                  0      0.00%     90.00% # Class of executed instruction
system.cpu.op_class::SimdShaSigma3                  0      0.00%     90.00% # Class of executed instruction
system.cpu.op_class::SimdPredAlu                    0      0.00%     90.00% # Class of executed instruction
system.cpu.op_class::MemRead                        2     10.00%    100.00% # Class of executed instruction
system.cpu.op_class::MemWrite                       0      0.00%    100.00% # Class of executed instruction
system.cpu.op_class::FloatMemRead                   0      0.00%    100.00% # Class of executed instruction
system.cpu.op_class::FloatMemWrite                  0      0.00%    100.00% # Class of executed instruction
system.cpu.op_class::IprAccess                      0      0.00%    100.00% # Class of executed instruction
system.cpu.op_class::InstPrefetch                   0      0.00%    100.00% # Class of executed instruction
system.cpu.op_class::total                         20                       # Class of executed instruction
system.cpu.workload.numSyscalls                     0                       # Number of system calls
system.membus.snoop_filter.hit_multi_requests            0                       # Number of requests hitting in the snoop filter with multiple (>1) holders of the requested data.
system.membus.snoop_filter.hit_multi_snoops            0                       # Number of snoops hitting in the snoop filter with multiple (>1) holders of the requested data.
system.membus.snoop_filter.hit_single_requests      1142482                       # Number of requests hitting in the snoop filter with a single holder of the requested data.
system.membus.snoop_filter.hit_single_snoops            0                       # Number of snoops hitting in the snoop filter with a single holder of the requested data.
system.membus.snoop_filter.tot_requests       2287157                       # Total number of requests made to the snoop filter.
system.membus.snoop_filter.tot_snoops               0                       # Total number of snoops made to the snoop filter.
system.switch_cpus.branchPred.BTBCorrect            0                       # Number of correct BTB predictions (this stat may not work properly.
system.switch_cpus.branchPred.BTBHitPct      0.000000                       # BTB Hit Percentage
system.switch_cpus.branchPred.BTBHits               0                       # Number of BTB hits
system.switch_cpus.branchPred.BTBLookups      3077669                       # Number of BTB lookups
system.switch_cpus.branchPred.RASInCorrect            1                       # Number of incorrect RAS predictions.
system.switch_cpus.branchPred.condIncorrect       170283                       # Number of conditional branches incorrect
system.switch_cpus.branchPred.condPredicted      4193362                       # Number of conditional branches predicted
system.switch_cpus.branchPred.indirectHits      1893622                       # Number of indirect target hits.
system.switch_cpus.branchPred.indirectLookups      3077669                       # Number of indirect predictor lookups.
system.switch_cpus.branchPred.indirectMisses      1184047                       # Number of indirect misses.
system.switch_cpus.branchPred.lookups         4248147                       # Number of BP lookups
system.switch_cpus.branchPred.usedRAS           29807                       # Number of times the RAS was used to get a target.
system.switch_cpus.branchPredindirectMispredicted       111716                       # Number of mispredicted indirect branches.
system.switch_cpus.cc_regfile_reads          15660746                       # number of cc regfile reads
system.switch_cpus.cc_regfile_writes          9216137                       # number of cc regfile writes
system.switch_cpus.commit.amos                      0                       # Number of atomic instructions committed
system.switch_cpus.commit.branchMispredicts       170364                       # The number of times a branch was mispredicted
system.switch_cpus.commit.branches            2713376                       # Number of branches committed
system.switch_cpus.commit.bw_lim_events       1334358                       # number cycles where commit BW limit reached
system.switch_cpus.commit.commitSquashedInsts      6488145                       # The number of squashed insts skipped by commit
system.switch_cpus.commit.committedInsts     10000000                       # Number of instructions committed
system.switch_cpus.commit.committedOps       17564223                       # Number of ops (including micro ops) committed
system.switch_cpus.commit.committed_per_cycle::samples     70648546                       # Number of insts commited each cycle
system.switch_cpus.commit.committed_per_cycle::mean     0.248614                       # Number of insts commited each cycle
system.switch_cpus.commit.committed_per_cycle::stdev     1.201715                       # Number of insts commited each cycle
system.switch_cpus.commit.committed_per_cycle::underflows            0      0.00%      0.00% # Number of insts commited each cycle
system.switch_cpus.commit.committed_per_cycle::0     66300310     93.85%     93.85% # Number of insts commited each cycle
system.switch_cpus.commit.committed_per_cycle::1      1169603      1.66%     95.50% # Number of insts commited each cycle
system.switch_cpus.commit.committed_per_cycle::2       496890      0.70%     96.20% # Number of insts commited each cycle
system.switch_cpus.commit.committed_per_cycle::3       983782      1.39%     97.60% # Number of insts commited each cycle
system.switch_cpus.commit.committed_per_cycle::4       152677      0.22%     97.81% # Number of insts commited each cycle
system.switch_cpus.commit.committed_per_cycle::5       133278      0.19%     98.00% # Number of insts commited each cycle
system.switch_cpus.commit.committed_per_cycle::6        46004      0.07%     98.07% # Number of insts commited each cycle
system.switch_cpus.commit.committed_per_cycle::7        31644      0.04%     98.11% # Number of insts commited each cycle
system.switch_cpus.commit.committed_per_cycle::8      1334358      1.89%    100.00% # Number of insts commited each cycle
system.switch_cpus.commit.committed_per_cycle::overflows            0      0.00%    100.00% # Number of insts commited each cycle
system.switch_cpus.commit.committed_per_cycle::min_value            0                       # Number of insts commited each cycle
system.switch_cpus.commit.committed_per_cycle::max_value            8                       # Number of insts commited each cycle
system.switch_cpus.commit.committed_per_cycle::total     70648546                       # Number of insts commited each cycle
system.switch_cpus.commit.fp_insts                  0                       # Number of committed floating point instructions.
system.switch_cpus.commit.function_calls         2082                       # Number of function calls committed.
system.switch_cpus.commit.int_insts          17541010                       # Number of committed integer instructions.
system.switch_cpus.commit.loads               3923977                       # Number of loads committed
system.switch_cpus.commit.membars                   0                       # Number of memory barriers committed
system.switch_cpus.commit.op_class_0::No_OpClass        20038      0.11%      0.11% # Class of committed instruction
system.switch_cpus.commit.op_class_0::IntAlu     13353407     76.03%     76.14% # Class of committed instruction
system.switch_cpus.commit.op_class_0::IntMult          330      0.00%     76.14% # Class of committed instruction
system.switch_cpus.commit.op_class_0::IntDiv            0      0.00%     76.14% # Class of committed instruction
system.switch_cpus.commit.op_class_0::FloatAdd            0      0.00%     76.14% # Class of committed instruction
system.switch_cpus.commit.op_class_0::FloatCmp            0      0.00%     76.14% # Class of committed instruction
system.switch_cpus.commit.op_class_0::FloatCvt            0      0.00%     76.14% # Class of committed instruction
system.switch_cpus.commit.op_class_0::FloatMult            0      0.00%     76.14% # Class of committed instruction
system.switch_cpus.commit.op_class_0::FloatMultAcc            0      0.00%     76.14% # Class of committed instruction
system.switch_cpus.commit.op_class_0::FloatDiv            0      0.00%     76.14% # Class of committed instruction
system.switch_cpus.commit.op_class_0::FloatMisc            0      0.00%     76.14% # Class of committed instruction
system.switch_cpus.commit.op_class_0::FloatSqrt            0      0.00%     76.14% # Class of committed instruction
system.switch_cpus.commit.op_class_0::SimdAdd            0      0.00%     76.14% # Class of committed instruction
system.switch_cpus.commit.op_class_0::SimdAddAcc            0      0.00%     76.14% # Class of committed instruction
system.switch_cpus.commit.op_class_0::SimdAlu            0      0.00%     76.14% # Class of committed instruction
system.switch_cpus.commit.op_class_0::SimdCmp            0      0.00%     76.14% # Class of committed instruction
system.switch_cpus.commit.op_class_0::SimdCvt            0      0.00%     76.14% # Class of committed instruction
system.switch_cpus.commit.op_class_0::SimdMisc            0      0.00%     76.14% # Class of committed instruction
system.switch_cpus.commit.op_class_0::SimdMult            0      0.00%     76.14% # Class of committed instruction
system.switch_cpus.commit.op_class_0::SimdMultAcc            0      0.00%     76.14% # Class of committed instruction
system.switch_cpus.commit.op_class_0::SimdShift            0      0.00%     76.14% # Class of committed instruction
system.switch_cpus.commit.op_class_0::SimdShiftAcc            0      0.00%     76.14% # Class of committed instruction
system.switch_cpus.commit.op_class_0::SimdDiv            0      0.00%     76.14% # Class of committed instruction
system.switch_cpus.commit.op_class_0::SimdSqrt            0      0.00%     76.14% # Class of committed instruction
system.switch_cpus.commit.op_class_0::SimdFloatAdd            0      0.00%     76.14% # Class of committed instruction
system.switch_cpus.commit.op_class_0::SimdFloatAlu            0      0.00%     76.14% # Class of committed instruction
system.switch_cpus.commit.op_class_0::SimdFloatCmp            0      0.00%     76.14% # Class of committed instruction
system.switch_cpus.commit.op_class_0::SimdFloatCvt            0      0.00%     76.14% # Class of committed instruction
system.switch_cpus.commit.op_class_0::SimdFloatDiv            0      0.00%     76.14% # Class of committed instruction
system.switch_cpus.commit.op_class_0::SimdFloatMisc            0      0.00%     76.14% # Class of committed instruction
system.switch_cpus.commit.op_class_0::SimdFloatMult            0      0.00%     76.14% # Class of committed instruction
system.switch_cpus.commit.op_class_0::SimdFloatMultAcc            0      0.00%     76.14% # Class of committed instruction
system.switch_cpus.commit.op_class_0::SimdFloatSqrt            0      0.00%     76.14% # Class of committed instruction
system.switch_cpus.commit.op_class_0::SimdReduceAdd            0      0.00%     76.14% # Class of committed instruction
system.switch_cpus.commit.op_class_0::SimdReduceAlu            0      0.00%     76.14% # Class of committed instruction
system.switch_cpus.commit.op_class_0::SimdReduceCmp            0      0.00%     76.14% # Class of committed instruction
system.switch_cpus.commit.op_class_0::SimdFloatReduceAdd            0      0.00%     76.14% # Class of committed instruction
system.switch_cpus.commit.op_class_0::SimdFloatReduceCmp            0      0.00%     76.14% # Class of committed instruction
system.switch_cpus.commit.op_class_0::SimdAes            0      0.00%     76.14% # Class of committed instruction
system.switch_cpus.commit.op_class_0::SimdAesMix            0      0.00%     76.14% # Class of committed instruction
system.switch_cpus.commit.op_class_0::SimdSha1Hash            0      0.00%     76.14% # Class of committed instruction
system.switch_cpus.commit.op_class_0::SimdSha1Hash2            0      0.00%     76.14% # Class of committed instruction
system.switch_cpus.commit.op_class_0::SimdSha256Hash            0      0.00%     76.14% # Class of committed instruction
system.switch_cpus.commit.op_class_0::SimdSha256Hash2            0      0.00%     76.14% # Class of committed instruction
system.switch_cpus.commit.op_class_0::SimdShaSigma2            0      0.00%     76.14% # Class of committed instruction
system.switch_cpus.commit.op_class_0::SimdShaSigma3            0      0.00%     76.14% # Class of committed instruction
system.switch_cpus.commit.op_class_0::SimdPredAlu            0      0.00%     76.14% # Class of committed instruction
system.switch_cpus.commit.op_class_0::MemRead      3923977     22.34%     98.48% # Class of committed instruction
system.switch_cpus.commit.op_class_0::MemWrite       266471      1.52%    100.00% # Class of committed instruction
system.switch_cpus.commit.op_class_0::FloatMemRead            0      0.00%    100.00% # Class of committed instruction
system.switch_cpus.commit.op_class_0::FloatMemWrite            0      0.00%    100.00% # Class of committed instruction
system.switch_cpus.commit.op_class_0::IprAccess            0      0.00%    100.00% # Class of committed instruction
system.switch_cpus.commit.op_class_0::InstPrefetch            0      0.00%    100.00% # Class of committed instruction
system.switch_cpus.commit.op_class_0::total     17564223                       # Class of committed instruction
system.switch_cpus.commit.refs                4190448                       # Number of memory references committed
system.switch_cpus.commit.swp_count                 0                       # Number of s/w prefetches committed
system.switch_cpus.commit.vec_insts                 0                       # Number of committed Vector instructions.
system.switch_cpus.committedInsts            10000000                       # Number of Instructions Simulated
system.switch_cpus.committedOps              17564223                       # Number of Ops (including micro ops) Simulated
system.switch_cpus.cpi                       7.165216                       # CPI: Cycles Per Instruction
system.switch_cpus.cpi_total                 7.165216                       # CPI: Total CPI of All Threads
system.switch_cpus.decode.BlockedCycles      66688497                       # Number of cycles decode is blocked
system.switch_cpus.decode.DecodedInsts       26302208                       # Number of instructions handled by decode
system.switch_cpus.decode.IdleCycles          1242548                       # Number of cycles decode is idle
system.switch_cpus.decode.RunCycles           1900257                       # Number of cycles decode is running
system.switch_cpus.decode.SquashCycles         170581                       # Number of cycles decode is squashing
system.switch_cpus.decode.UnblockCycles       1646522                       # Number of cycles decode is unblocking
system.switch_cpus.dtb.rdAccesses             4594968                       # TLB accesses on read requests
system.switch_cpus.dtb.rdMisses               1391059                       # TLB misses on read requests
system.switch_cpus.dtb.wrAccesses              381868                       # TLB accesses on write requests
system.switch_cpus.dtb.wrMisses                  9716                       # TLB misses on write requests
system.switch_cpus.fetch.Branches             4248147                       # Number of branches that fetch encountered
system.switch_cpus.fetch.CacheLines            880180                       # Number of cache lines fetched
system.switch_cpus.fetch.Cycles              70502022                       # Number of cycles fetch has run and was not squashing or blocked
system.switch_cpus.fetch.IcacheSquashes         32830                       # Number of outstanding Icache misses that were squashed
system.switch_cpus.fetch.Insts               16598365                       # Number of instructions fetch has processed
system.switch_cpus.fetch.MiscStallCycles           81                       # Number of cycles fetch has spent waiting on interrupts, or bad addresses, or out of MSHRs
system.switch_cpus.fetch.PendingTrapStallCycles          557                       # Number of stall cycles due to pending traps
system.switch_cpus.fetch.SquashCycles          341162                       # Number of cycles fetch has spent squashing
system.switch_cpus.fetch.branchRate          0.059288                       # Number of branch fetches per cycle
system.switch_cpus.fetch.icacheStallCycles       975171                       # Number of cycles fetch is stalled on an Icache miss
system.switch_cpus.fetch.predictedBranches      1923429                       # Number of branches that fetch has predicted taken
system.switch_cpus.fetch.rate                0.231652                       # Number of inst fetches per cycle
system.switch_cpus.fetch.rateDist::samples     71648412                       # Number of instructions fetched each cycle (Total)
system.switch_cpus.fetch.rateDist::mean      0.403114                       # Number of instructions fetched each cycle (Total)
system.switch_cpus.fetch.rateDist::stdev     1.598332                       # Number of instructions fetched each cycle (Total)
system.switch_cpus.fetch.rateDist::underflows            0      0.00%      0.00% # Number of instructions fetched each cycle (Total)
system.switch_cpus.fetch.rateDist::0         66655430     93.03%     93.03% # Number of instructions fetched each cycle (Total)
system.switch_cpus.fetch.rateDist::1           305747      0.43%     93.46% # Number of instructions fetched each cycle (Total)
system.switch_cpus.fetch.rateDist::2           316963      0.44%     93.90% # Number of instructions fetched each cycle (Total)
system.switch_cpus.fetch.rateDist::3           342931      0.48%     94.38% # Number of instructions fetched each cycle (Total)
system.switch_cpus.fetch.rateDist::4           538524      0.75%     95.13% # Number of instructions fetched each cycle (Total)
system.switch_cpus.fetch.rateDist::5           817888      1.14%     96.27% # Number of instructions fetched each cycle (Total)
system.switch_cpus.fetch.rateDist::6           236069      0.33%     96.60% # Number of instructions fetched each cycle (Total)
system.switch_cpus.fetch.rateDist::7           224839      0.31%     96.92% # Number of instructions fetched each cycle (Total)
system.switch_cpus.fetch.rateDist::8          2210021      3.08%    100.00% # Number of instructions fetched each cycle (Total)
system.switch_cpus.fetch.rateDist::overflows            0      0.00%    100.00% # Number of instructions fetched each cycle (Total)
system.switch_cpus.fetch.rateDist::min_value            0                       # Number of instructions fetched each cycle (Total)
system.switch_cpus.fetch.rateDist::max_value            8                       # Number of instructions fetched each cycle (Total)
system.switch_cpus.fetch.rateDist::total     71648412                       # Number of instructions fetched each cycle (Total)
system.switch_cpus.fp_regfile_writes               56                       # number of floating regfile writes
system.switch_cpus.idleCycles                    3744                       # Total number of cycles that the CPU has spent unscheduled due to idling
system.switch_cpus.iew.branchMispredicts       216691                       # Number of branch mispredicts detected at execute
system.switch_cpus.iew.exec_branches          3093216                       # Number of branches executed
system.switch_cpus.iew.exec_nop                     0                       # number of nop insts executed
system.switch_cpus.iew.exec_rate             0.488568                       # Inst execution rate
system.switch_cpus.iew.exec_refs             18390407                       # number of memory reference insts executed
system.switch_cpus.iew.exec_stores             381855                       # Number of stores executed
system.switch_cpus.iew.exec_swp                     0                       # number of swp insts executed
system.switch_cpus.iew.iewBlockCycles        20706957                       # Number of cycles IEW is blocking
system.switch_cpus.iew.iewDispLoadInsts       5089585                       # Number of dispatched load instructions
system.switch_cpus.iew.iewDispNonSpecInsts            0                       # Number of dispatched non-speculative instructions
system.switch_cpus.iew.iewDispSquashedInsts        27307                       # Number of squashed instructions skipped by dispatch
system.switch_cpus.iew.iewDispStoreInsts       566853                       # Number of dispatched store instructions
system.switch_cpus.iew.iewDispatchedInsts     24044374                       # Number of instructions dispatched to IQ
system.switch_cpus.iew.iewExecLoadInsts      18008552                       # Number of load instructions executed
system.switch_cpus.iew.iewExecSquashedInsts       369026                       # Number of squashed instructions skipped in execute
system.switch_cpus.iew.iewExecutedInsts      35006934                       # Number of executed instructions
system.switch_cpus.iew.iewIQFullEvents         274282                       # Number of times the IQ has become full, causing a stall
system.switch_cpus.iew.iewIdleCycles                0                       # Number of cycles IEW is idle
system.switch_cpus.iew.iewLSQFullEvents      12050999                       # Number of times the LSQ has become full, causing a stall
system.switch_cpus.iew.iewSquashCycles         170581                       # Number of cycles IEW is squashing
system.switch_cpus.iew.iewUnblockCycles      12551834                       # Number of cycles IEW is unblocking
system.switch_cpus.iew.lsq.thread0.blockedLoads            0                       # Number of blocked loads due to partial load-store forwarding
system.switch_cpus.iew.lsq.thread0.cacheBlocked      1246184                       # Number of times an access to memory failed due to the cache being blocked
system.switch_cpus.iew.lsq.thread0.forwLoads        43647                       # Number of loads that had data forwarded from stores
system.switch_cpus.iew.lsq.thread0.ignoredResponses          389                       # Number of memory responses ignored because the instruction is squashed
system.switch_cpus.iew.lsq.thread0.invAddrLoads            0                       # Number of loads ignored due to an invalid address
system.switch_cpus.iew.lsq.thread0.invAddrSwpfs            0                       # Number of software prefetches ignored due to an invalid address
system.switch_cpus.iew.lsq.thread0.memOrderViolation          545                       # Number of memory ordering violations
system.switch_cpus.iew.lsq.thread0.rescheduledLoads            0                       # Number of loads that were rescheduled
system.switch_cpus.iew.lsq.thread0.squashedLoads      1165579                       # Number of loads squashed
system.switch_cpus.iew.lsq.thread0.squashedStores       300382                       # Number of stores squashed
system.switch_cpus.iew.memOrderViolationEvents          545                       # Number of memory order violations
system.switch_cpus.iew.predictedNotTakenIncorrect       174537                       # Number of branches that were predicted not taken incorrectly
system.switch_cpus.iew.predictedTakenIncorrect        42154                       # Number of branches that were predicted taken incorrectly
system.switch_cpus.iew.wb_consumers          21809720                       # num instructions consuming a value
system.switch_cpus.iew.wb_count              21233620                       # cumulative count of insts written-back
system.switch_cpus.iew.wb_fanout             0.712758                       # average fanout of values written-back
system.switch_cpus.iew.wb_producers          15545053                       # num instructions producing a value
system.switch_cpus.iew.wb_rate               0.296343                       # insts written-back per cycle
system.switch_cpus.iew.wb_sent               21289356                       # cumulative count of insts sent to commit
system.switch_cpus.int_regfile_reads         54370141                       # number of integer regfile reads
system.switch_cpus.int_regfile_writes        17696593                       # number of integer regfile writes
system.switch_cpus.ipc                       0.139563                       # IPC: Instructions Per Cycle
system.switch_cpus.ipc_total                 0.139563                       # IPC: Total IPC of All Threads
system.switch_cpus.iq.FU_type_0::No_OpClass        98305      0.28%      0.28% # Type of FU issued
system.switch_cpus.iq.FU_type_0::IntAlu      16789752     47.46%     47.74% # Type of FU issued
system.switch_cpus.iq.FU_type_0::IntMult          536      0.00%     47.74% # Type of FU issued
system.switch_cpus.iq.FU_type_0::IntDiv             0      0.00%     47.74% # Type of FU issued
system.switch_cpus.iq.FU_type_0::FloatAdd            0      0.00%     47.74% # Type of FU issued
system.switch_cpus.iq.FU_type_0::FloatCmp            0      0.00%     47.74% # Type of FU issued
system.switch_cpus.iq.FU_type_0::FloatCvt            0      0.00%     47.74% # Type of FU issued
system.switch_cpus.iq.FU_type_0::FloatMult            0      0.00%     47.74% # Type of FU issued
system.switch_cpus.iq.FU_type_0::FloatMultAcc            0      0.00%     47.74% # Type of FU issued
system.switch_cpus.iq.FU_type_0::FloatDiv            0      0.00%     47.74% # Type of FU issued
system.switch_cpus.iq.FU_type_0::FloatMisc            0      0.00%     47.74% # Type of FU issued
system.switch_cpus.iq.FU_type_0::FloatSqrt            0      0.00%     47.74% # Type of FU issued
system.switch_cpus.iq.FU_type_0::SimdAdd            0      0.00%     47.74% # Type of FU issued
system.switch_cpus.iq.FU_type_0::SimdAddAcc            0      0.00%     47.74% # Type of FU issued
system.switch_cpus.iq.FU_type_0::SimdAlu            0      0.00%     47.74% # Type of FU issued
system.switch_cpus.iq.FU_type_0::SimdCmp            0      0.00%     47.74% # Type of FU issued
system.switch_cpus.iq.FU_type_0::SimdCvt            0      0.00%     47.74% # Type of FU issued
system.switch_cpus.iq.FU_type_0::SimdMisc            0      0.00%     47.74% # Type of FU issued
system.switch_cpus.iq.FU_type_0::SimdMult            0      0.00%     47.74% # Type of FU issued
system.switch_cpus.iq.FU_type_0::SimdMultAcc            0      0.00%     47.74% # Type of FU issued
system.switch_cpus.iq.FU_type_0::SimdShift            0      0.00%     47.74% # Type of FU issued
system.switch_cpus.iq.FU_type_0::SimdShiftAcc            0      0.00%     47.74% # Type of FU issued
system.switch_cpus.iq.FU_type_0::SimdDiv            0      0.00%     47.74% # Type of FU issued
system.switch_cpus.iq.FU_type_0::SimdSqrt            0      0.00%     47.74% # Type of FU issued
system.switch_cpus.iq.FU_type_0::SimdFloatAdd            0      0.00%     47.74% # Type of FU issued
system.switch_cpus.iq.FU_type_0::SimdFloatAlu            0      0.00%     47.74% # Type of FU issued
system.switch_cpus.iq.FU_type_0::SimdFloatCmp            0      0.00%     47.74% # Type of FU issued
system.switch_cpus.iq.FU_type_0::SimdFloatCvt            0      0.00%     47.74% # Type of FU issued
system.switch_cpus.iq.FU_type_0::SimdFloatDiv            0      0.00%     47.74% # Type of FU issued
system.switch_cpus.iq.FU_type_0::SimdFloatMisc            0      0.00%     47.74% # Type of FU issued
system.switch_cpus.iq.FU_type_0::SimdFloatMult            0      0.00%     47.74% # Type of FU issued
system.switch_cpus.iq.FU_type_0::SimdFloatMultAcc            0      0.00%     47.74% # Type of FU issued
system.switch_cpus.iq.FU_type_0::SimdFloatSqrt            0      0.00%     47.74% # Type of FU issued
system.switch_cpus.iq.FU_type_0::SimdReduceAdd            0      0.00%     47.74% # Type of FU issued
system.switch_cpus.iq.FU_type_0::SimdReduceAlu            0      0.00%     47.74% # Type of FU issued
system.switch_cpus.iq.FU_type_0::SimdReduceCmp            0      0.00%     47.74% # Type of FU issued
system.switch_cpus.iq.FU_type_0::SimdFloatReduceAdd            0      0.00%     47.74% # Type of FU issued
system.switch_cpus.iq.FU_type_0::SimdFloatReduceCmp            0      0.00%     47.74% # Type of FU issued
system.switch_cpus.iq.FU_type_0::SimdAes            0      0.00%     47.74% # Type of FU issued
system.switch_cpus.iq.FU_type_0::SimdAesMix            0      0.00%     47.74% # Type of FU issued
system.switch_cpus.iq.FU_type_0::SimdSha1Hash            0      0.00%     47.74% # Type of FU issued
system.switch_cpus.iq.FU_type_0::SimdSha1Hash2            0      0.00%     47.74% # Type of FU issued
system.switch_cpus.iq.FU_type_0::SimdSha256Hash            0      0.00%     47.74% # Type of FU issued
system.switch_cpus.iq.FU_type_0::SimdSha256Hash2            0      0.00%     47.74% # Type of FU issued
system.switch_cpus.iq.FU_type_0::SimdShaSigma2            0      0.00%     47.74% # Type of FU issued
system.switch_cpus.iq.FU_type_0::SimdShaSigma3            0      0.00%     47.74% # Type of FU issued
system.switch_cpus.iq.FU_type_0::SimdPredAlu            0      0.00%     47.74% # Type of FU issued
system.switch_cpus.iq.FU_type_0::MemRead     18084489     51.12%     98.86% # Type of FU issued
system.switch_cpus.iq.FU_type_0::MemWrite       402879      1.14%    100.00% # Type of FU issued
system.switch_cpus.iq.FU_type_0::FloatMemRead            0      0.00%    100.00% # Type of FU issued
system.switch_cpus.iq.FU_type_0::FloatMemWrite            0      0.00%    100.00% # Type of FU issued
system.switch_cpus.iq.FU_type_0::IprAccess            0      0.00%    100.00% # Type of FU issued
system.switch_cpus.iq.FU_type_0::InstPrefetch            0      0.00%    100.00% # Type of FU issued
system.switch_cpus.iq.FU_type_0::total       35375961                       # Type of FU issued
system.switch_cpus.iq.fp_alu_accesses               0                       # Number of floating point alu accesses
system.switch_cpus.iq.fp_inst_queue_reads            0                       # Number of floating instruction queue reads
system.switch_cpus.iq.fp_inst_queue_wakeup_accesses            0                       # Number of floating instruction queue wakeup accesses
system.switch_cpus.iq.fp_inst_queue_writes            0                       # Number of floating instruction queue writes
system.switch_cpus.iq.fu_busy_cnt             2761511                       # FU busy when requested
system.switch_cpus.iq.fu_busy_rate           0.078062                       # FU busy rate (busy events/executed inst)
system.switch_cpus.iq.fu_full::No_OpClass            0      0.00%      0.00% # attempts to use FU when none available
system.switch_cpus.iq.fu_full::IntAlu           84260      3.05%      3.05% # attempts to use FU when none available
system.switch_cpus.iq.fu_full::IntMult              0      0.00%      3.05% # attempts to use FU when none available
system.switch_cpus.iq.fu_full::IntDiv               0      0.00%      3.05% # attempts to use FU when none available
system.switch_cpus.iq.fu_full::FloatAdd             0      0.00%      3.05% # attempts to use FU when none available
system.switch_cpus.iq.fu_full::FloatCmp             0      0.00%      3.05% # attempts to use FU when none available
system.switch_cpus.iq.fu_full::FloatCvt             0      0.00%      3.05% # attempts to use FU when none available
system.switch_cpus.iq.fu_full::FloatMult            0      0.00%      3.05% # attempts to use FU when none available
system.switch_cpus.iq.fu_full::FloatMultAcc            0      0.00%      3.05% # attempts to use FU when none available
system.switch_cpus.iq.fu_full::FloatDiv             0      0.00%      3.05% # attempts to use FU when none available
system.switch_cpus.iq.fu_full::FloatMisc            0      0.00%      3.05% # attempts to use FU when none available
system.switch_cpus.iq.fu_full::FloatSqrt            0      0.00%      3.05% # attempts to use FU when none available
system.switch_cpus.iq.fu_full::SimdAdd              0      0.00%      3.05% # attempts to use FU when none available
system.switch_cpus.iq.fu_full::SimdAddAcc            0      0.00%      3.05% # attempts to use FU when none available
system.switch_cpus.iq.fu_full::SimdAlu              0      0.00%      3.05% # attempts to use FU when none available
system.switch_cpus.iq.fu_full::SimdCmp              0      0.00%      3.05% # attempts to use FU when none available
system.switch_cpus.iq.fu_full::SimdCvt              0      0.00%      3.05% # attempts to use FU when none available
system.switch_cpus.iq.fu_full::SimdMisc             0      0.00%      3.05% # attempts to use FU when none available
system.switch_cpus.iq.fu_full::SimdMult             0      0.00%      3.05% # attempts to use FU when none available
system.switch_cpus.iq.fu_full::SimdMultAcc            0      0.00%      3.05% # attempts to use FU when none available
system.switch_cpus.iq.fu_full::SimdShift            0      0.00%      3.05% # attempts to use FU when none available
system.switch_cpus.iq.fu_full::SimdShiftAcc            0      0.00%      3.05% # attempts to use FU when none available
system.switch_cpus.iq.fu_full::SimdDiv              0      0.00%      3.05% # attempts to use FU when none available
system.switch_cpus.iq.fu_full::SimdSqrt             0      0.00%      3.05% # attempts to use FU when none available
system.switch_cpus.iq.fu_full::SimdFloatAdd            0      0.00%      3.05% # attempts to use FU when none available
system.switch_cpus.iq.fu_full::SimdFloatAlu            0      0.00%      3.05% # attempts to use FU when none available
system.switch_cpus.iq.fu_full::SimdFloatCmp            0      0.00%      3.05% # attempts to use FU when none available
system.switch_cpus.iq.fu_full::SimdFloatCvt            0      0.00%      3.05% # attempts to use FU when none available
system.switch_cpus.iq.fu_full::SimdFloatDiv            0      0.00%      3.05% # attempts to use FU when none available
system.switch_cpus.iq.fu_full::SimdFloatMisc            0      0.00%      3.05% # attempts to use FU when none available
system.switch_cpus.iq.fu_full::SimdFloatMult            0      0.00%      3.05% # attempts to use FU when none available
system.switch_cpus.iq.fu_full::SimdFloatMultAcc            0      0.00%      3.05% # attempts to use FU when none available
system.switch_cpus.iq.fu_full::SimdFloatSqrt            0      0.00%      3.05% # attempts to use FU when none available
system.switch_cpus.iq.fu_full::SimdReduceAdd            0      0.00%      3.05% # attempts to use FU when none available
system.switch_cpus.iq.fu_full::SimdReduceAlu            0      0.00%      3.05% # attempts to use FU when none available
system.switch_cpus.iq.fu_full::SimdReduceCmp            0      0.00%      3.05% # attempts to use FU when none available
system.switch_cpus.iq.fu_full::SimdFloatReduceAdd            0      0.00%      3.05% # attempts to use FU when none available
system.switch_cpus.iq.fu_full::SimdFloatReduceCmp            0      0.00%      3.05% # attempts to use FU when none available
system.switch_cpus.iq.fu_full::SimdAes              0      0.00%      3.05% # attempts to use FU when none available
system.switch_cpus.iq.fu_full::SimdAesMix            0      0.00%      3.05% # attempts to use FU when none available
system.switch_cpus.iq.fu_full::SimdSha1Hash            0      0.00%      3.05% # attempts to use FU when none available
system.switch_cpus.iq.fu_full::SimdSha1Hash2            0      0.00%      3.05% # attempts to use FU when none available
system.switch_cpus.iq.fu_full::SimdSha256Hash            0      0.00%      3.05% # attempts to use FU when none available
system.switch_cpus.iq.fu_full::SimdSha256Hash2            0      0.00%      3.05% # attempts to use FU when none available
system.switch_cpus.iq.fu_full::SimdShaSigma2            0      0.00%      3.05% # attempts to use FU when none available
system.switch_cpus.iq.fu_full::SimdShaSigma3            0      0.00%      3.05% # attempts to use FU when none available
system.switch_cpus.iq.fu_full::SimdPredAlu            0      0.00%      3.05% # attempts to use FU when none available
system.switch_cpus.iq.fu_full::MemRead        2658314     96.26%     99.31% # attempts to use FU when none available
system.switch_cpus.iq.fu_full::MemWrite         18937      0.69%    100.00% # attempts to use FU when none available
system.switch_cpus.iq.fu_full::FloatMemRead            0      0.00%    100.00% # attempts to use FU when none available
system.switch_cpus.iq.fu_full::FloatMemWrite            0      0.00%    100.00% # attempts to use FU when none available
system.switch_cpus.iq.fu_full::IprAccess            0      0.00%    100.00% # attempts to use FU when none available
system.switch_cpus.iq.fu_full::InstPrefetch            0      0.00%    100.00% # attempts to use FU when none available
system.switch_cpus.iq.int_alu_accesses       38039167                       # Number of integer alu accesses
system.switch_cpus.iq.int_inst_queue_reads    145306256                       # Number of integer instruction queue reads
system.switch_cpus.iq.int_inst_queue_wakeup_accesses     21233620                       # Number of integer instruction queue wakeup accesses
system.switch_cpus.iq.int_inst_queue_writes     30524701                       # Number of integer instruction queue writes
system.switch_cpus.iq.iqInstsAdded           24044374                       # Number of instructions added to the IQ (excludes non-spec)
system.switch_cpus.iq.iqInstsIssued          35375961                       # Number of instructions issued
system.switch_cpus.iq.iqSquashedInstsExamined      6480037                       # Number of squashed instructions iterated over during squash; mainly for profiling
system.switch_cpus.iq.iqSquashedInstsIssued       144412                       # Number of squashed instructions issued
system.switch_cpus.iq.iqSquashedOperandsExamined      9741428                       # Number of squashed operands that are examined and possibly removed from graph
system.switch_cpus.iq.issued_per_cycle::samples     71648412                       # Number of insts issued each cycle
system.switch_cpus.iq.issued_per_cycle::mean     0.493744                       # Number of insts issued each cycle
system.switch_cpus.iq.issued_per_cycle::stdev     1.338099                       # Number of insts issued each cycle
system.switch_cpus.iq.issued_per_cycle::underflows            0      0.00%      0.00% # Number of insts issued each cycle
system.switch_cpus.iq.issued_per_cycle::0     59883489     83.58%     83.58% # Number of insts issued each cycle
system.switch_cpus.iq.issued_per_cycle::1      3708131      5.18%     88.76% # Number of insts issued each cycle
system.switch_cpus.iq.issued_per_cycle::2      1768628      2.47%     91.22% # Number of insts issued each cycle
system.switch_cpus.iq.issued_per_cycle::3      1361286      1.90%     93.12% # Number of insts issued each cycle
system.switch_cpus.iq.issued_per_cycle::4      2360575      3.29%     96.42% # Number of insts issued each cycle
system.switch_cpus.iq.issued_per_cycle::5      1295967      1.81%     98.23% # Number of insts issued each cycle
system.switch_cpus.iq.issued_per_cycle::6       910626      1.27%     99.50% # Number of insts issued each cycle
system.switch_cpus.iq.issued_per_cycle::7       216855      0.30%     99.80% # Number of insts issued each cycle
system.switch_cpus.iq.issued_per_cycle::8       142855      0.20%    100.00% # Number of insts issued each cycle
system.switch_cpus.iq.issued_per_cycle::overflows            0      0.00%    100.00% # Number of insts issued each cycle
system.switch_cpus.iq.issued_per_cycle::min_value            0                       # Number of insts issued each cycle
system.switch_cpus.iq.issued_per_cycle::max_value            8                       # Number of insts issued each cycle
system.switch_cpus.iq.issued_per_cycle::total     71648412                       # Number of insts issued each cycle
system.switch_cpus.iq.rate                   0.493718                       # Inst issue rate
system.switch_cpus.iq.vec_alu_accesses              0                       # Number of vector alu accesses
system.switch_cpus.iq.vec_inst_queue_reads            0                       # Number of vector instruction queue reads
system.switch_cpus.iq.vec_inst_queue_wakeup_accesses            0                       # Number of vector instruction queue wakeup accesses
system.switch_cpus.iq.vec_inst_queue_writes            0                       # Number of vector instruction queue writes
system.switch_cpus.itb.rdAccesses                   0                       # TLB accesses on read requests
system.switch_cpus.itb.rdMisses                     0                       # TLB misses on read requests
system.switch_cpus.itb.wrAccesses              880290                       # TLB accesses on write requests
system.switch_cpus.itb.wrMisses                   113                       # TLB misses on write requests
system.switch_cpus.memDep0.conflictingLoads       200127                       # Number of conflicting loads.
system.switch_cpus.memDep0.conflictingStores       176512                       # Number of conflicting stores.
system.switch_cpus.memDep0.insertedLoads      5089585                       # Number of loads inserted to the mem dependence unit.
system.switch_cpus.memDep0.insertedStores       566853                       # Number of stores inserted to the mem dependence unit.
system.switch_cpus.misc_regfile_reads        25050947                       # number of misc regfile reads
system.switch_cpus.misc_regfile_writes              1                       # number of misc regfile writes
system.switch_cpus.numCycles                 71652156                       # number of cpu cycles simulated
system.switch_cpus.numWorkItemsCompleted            0                       # number of work items this cpu completed
system.switch_cpus.numWorkItemsStarted              0                       # number of work items this cpu started
system.switch_cpus.rename.BlockCycles        37494384                       # Number of cycles rename is blocking
system.switch_cpus.rename.CommittedMaps      22614526                       # Number of HB maps that are committed
system.switch_cpus.rename.IQFullEvents       10466725                       # Number of times rename has blocked due to IQ full
system.switch_cpus.rename.IdleCycles          1789703                       # Number of cycles rename is idle
system.switch_cpus.rename.LQFullEvents       26449461                       # Number of times rename has blocked due to LQ full
system.switch_cpus.rename.ROBFullEvents        127050                       # Number of times rename has blocked due to ROB full
system.switch_cpus.rename.RenameLookups      67316554                       # Number of register rename lookups that rename has made
system.switch_cpus.rename.RenamedInsts       25425432                       # Number of instructions processed by rename
system.switch_cpus.rename.RenamedOperands     32026110                       # Number of destination operands rename has renamed
system.switch_cpus.rename.RunCycles           2777298                       # Number of cycles rename is running
system.switch_cpus.rename.SQFullEvents          65491                       # Number of times rename has blocked due to SQ full
system.switch_cpus.rename.SquashCycles         170581                       # Number of cycles rename is squashing
system.switch_cpus.rename.UnblockCycles      29414192                       # Number of cycles rename is unblocking
system.switch_cpus.rename.UndoneMaps          9411428                       # Number of HB maps that are undone due to squashing
system.switch_cpus.rename.int_rename_lookups     34349853                       # Number of integer rename lookups
system.switch_cpus.rename.serializeStallCycles         2247                       # count of cycles rename stalled for serializing inst
system.switch_cpus.rename.serializingInsts         1996                       # count of serializing insts renamed
system.switch_cpus.rename.skidInsts           9634683                       # count of insts added to the skid buffer
system.switch_cpus.rename.tempSerializingInsts         1989                       # count of temporary serializing insts renamed
system.switch_cpus.rob.rob_reads             93366556                       # The number of ROB reads
system.switch_cpus.rob.rob_writes            49114115                       # The number of ROB writes
system.switch_cpus.timesIdled                      45                       # Number of times that the entire CPU went into an idle state and unscheduled itself
system.tol2bus.snoop_filter.hit_multi_requests            0                       # Number of requests hitting in the snoop filter with multiple (>1) holders of the requested data.
system.tol2bus.snoop_filter.hit_multi_snoops            0                       # Number of snoops hitting in the snoop filter with multiple (>1) holders of the requested data.
system.tol2bus.snoop_filter.hit_single_requests      1417201                       # Number of requests hitting in the snoop filter with a single holder of the requested data.
system.tol2bus.snoop_filter.hit_single_snoops       314474                       # Number of snoops hitting in the snoop filter with a single holder of the requested data.
system.tol2bus.snoop_filter.tot_requests      2835492                       # Total number of requests made to the snoop filter.
system.tol2bus.snoop_filter.tot_snoops         314474                       # Total number of snoops made to the snoop filter.
system.membus.pwrStateResidencyTicks::UNDEFINED 190186360358000                       # Cumulative time (in ticks) in various power states
system.membus.trans_dist::ReadResp            1140224                       # Transaction distribution
system.membus.trans_dist::WritebackDirty        51698                       # Transaction distribution
system.membus.trans_dist::CleanEvict          1090784                       # Transaction distribution
system.membus.trans_dist::ReadExReq              4449                       # Transaction distribution
system.membus.trans_dist::ReadExResp             4449                       # Transaction distribution
system.membus.trans_dist::ReadSharedReq       1140226                       # Transaction distribution
system.membus.pkt_count_system.l2.mem_side::system.mem_ctrls.port      3431830                       # Packet count per connected master and slave (bytes)
system.membus.pkt_count_system.l2.mem_side::total      3431830                       # Packet count per connected master and slave (bytes)
system.membus.pkt_count::total                3431830                       # Packet count per connected master and slave (bytes)
system.membus.pkt_size_system.l2.mem_side::system.mem_ctrls.port     76567744                       # Cumulative packet size per connected master and slave (bytes)
system.membus.pkt_size_system.l2.mem_side::total     76567744                       # Cumulative packet size per connected master and slave (bytes)
system.membus.pkt_size::total                76567744                       # Cumulative packet size per connected master and slave (bytes)
system.membus.snoops                                0                       # Total snoops (count)
system.membus.snoopTraffic                          0                       # Total snoop traffic (bytes)
system.membus.snoop_fanout::samples           1144675                       # Request fanout histogram
system.membus.snoop_fanout::mean                    0                       # Request fanout histogram
system.membus.snoop_fanout::stdev                   0                       # Request fanout histogram
system.membus.snoop_fanout::underflows              0      0.00%      0.00% # Request fanout histogram
system.membus.snoop_fanout::0                 1144675    100.00%    100.00% # Request fanout histogram
system.membus.snoop_fanout::1                       0      0.00%    100.00% # Request fanout histogram
system.membus.snoop_fanout::overflows               0      0.00%    100.00% # Request fanout histogram
system.membus.snoop_fanout::min_value               0                       # Request fanout histogram
system.membus.snoop_fanout::max_value               0                       # Request fanout histogram
system.membus.snoop_fanout::total             1144675                       # Request fanout histogram
system.membus.reqLayer2.occupancy          2623770000                       # Layer occupancy (ticks)
system.membus.reqLayer2.utilization               7.3                       # Layer utilization (%)
system.membus.respLayer1.occupancy         6403003500                       # Layer occupancy (ticks)
system.membus.respLayer1.utilization             17.9                       # Layer utilization (%)
system.switch_cpus.pwrStateResidencyTicks::OFF  35826089250                       # Cumulative time (in ticks) in various power states
system.switch_cpus.dtb.walker.pwrStateResidencyTicks::UNDEFINED 190186360358000                       # Cumulative time (in ticks) in various power states
system.switch_cpus.itb.walker.pwrStateResidencyTicks::UNDEFINED 190186360358000                       # Cumulative time (in ticks) in various power states
system.tol2bus.pwrStateResidencyTicks::UNDEFINED 190186360358000                       # Cumulative time (in ticks) in various power states
system.tol2bus.trans_dist::ReadResp           1410303                       # Transaction distribution
system.tol2bus.trans_dist::WritebackDirty       133380                       # Transaction distribution
system.tol2bus.trans_dist::CleanEvict         2451110                       # Transaction distribution
system.tol2bus.trans_dist::ReadExReq             7984                       # Transaction distribution
system.tol2bus.trans_dist::ReadExResp            7984                       # Transaction distribution
system.tol2bus.trans_dist::ReadCleanReq            62                       # Transaction distribution
system.tol2bus.trans_dist::ReadSharedReq      1410245                       # Transaction distribution
system.tol2bus.pkt_count_system.cpu.icache.mem_side::system.l2.cpu_side          124                       # Packet count per connected master and slave (bytes)
system.tol2bus.pkt_count_system.cpu.dcache.mem_side::system.l2.cpu_side      4253655                       # Packet count per connected master and slave (bytes)
system.tol2bus.pkt_count::total               4253779                       # Packet count per connected master and slave (bytes)
system.tol2bus.pkt_size_system.cpu.icache.mem_side::system.l2.cpu_side         3968                       # Cumulative packet size per connected master and slave (bytes)
system.tol2bus.pkt_size_system.cpu.dcache.mem_side::system.l2.cpu_side     95994048                       # Cumulative packet size per connected master and slave (bytes)
system.tol2bus.pkt_size::total               95998016                       # Cumulative packet size per connected master and slave (bytes)
system.tol2bus.snoops                         1167289                       # Total snoops (count)
system.tol2bus.snoopTraffic                   3308672                       # Total snoop traffic (bytes)
system.tol2bus.snoop_fanout::samples          2585580                       # Request fanout histogram
system.tol2bus.snoop_fanout::mean            0.121626                       # Request fanout histogram
system.tol2bus.snoop_fanout::stdev           0.326854                       # Request fanout histogram
system.tol2bus.snoop_fanout::underflows             0      0.00%      0.00% # Request fanout histogram
system.tol2bus.snoop_fanout::0                2271106     87.84%     87.84% # Request fanout histogram
system.tol2bus.snoop_fanout::1                 314474     12.16%    100.00% # Request fanout histogram
system.tol2bus.snoop_fanout::2                      0      0.00%    100.00% # Request fanout histogram
system.tol2bus.snoop_fanout::3                      0      0.00%    100.00% # Request fanout histogram
system.tol2bus.snoop_fanout::4                      0      0.00%    100.00% # Request fanout histogram
system.tol2bus.snoop_fanout::overflows              0      0.00%    100.00% # Request fanout histogram
system.tol2bus.snoop_fanout::min_value              0                       # Request fanout histogram
system.tol2bus.snoop_fanout::max_value              1                       # Request fanout histogram
system.tol2bus.snoop_fanout::total            2585580                       # Request fanout histogram
system.tol2bus.reqLayer0.occupancy         1499426500                       # Layer occupancy (ticks)
system.tol2bus.reqLayer0.utilization              4.2                       # Layer utilization (%)
system.tol2bus.respLayer1.occupancy        2127334500                       # Layer occupancy (ticks)
system.tol2bus.respLayer1.utilization             5.9                       # Layer utilization (%)
system.tol2bus.respLayer0.occupancy             91500                       # Layer occupancy (ticks)
system.tol2bus.respLayer0.utilization             0.0                       # Layer utilization (%)
system.voltage_domain.voltage                       1                       # Voltage in Volts
system.clk_domain.clock                          1000                       # Clock period in ticks
system.l2.pwrStateResidencyTicks::UNDEFINED 190186360358000                       # Cumulative time (in ticks) in various power states
system.l2.demand_hits::.switch_cpus.data       273615                       # number of demand (read+write) hits
system.l2.demand_hits::total                   273615                       # number of demand (read+write) hits
system.l2.overall_hits::.switch_cpus.data       273615                       # number of overall hits
system.l2.overall_hits::total                  273615                       # number of overall hits
system.l2.demand_misses::.cpu.inst                  1                       # number of demand (read+write) misses
system.l2.demand_misses::.cpu.data                  2                       # number of demand (read+write) misses
system.l2.demand_misses::.switch_cpus.inst           61                       # number of demand (read+write) misses
system.l2.demand_misses::.switch_cpus.data      1144612                       # number of demand (read+write) misses
system.l2.demand_misses::total                1144676                       # number of demand (read+write) misses
system.l2.overall_misses::.cpu.inst                 1                       # number of overall misses
system.l2.overall_misses::.cpu.data                 2                       # number of overall misses
system.l2.overall_misses::.switch_cpus.inst           61                       # number of overall misses
system.l2.overall_misses::.switch_cpus.data      1144612                       # number of overall misses
system.l2.overall_misses::total               1144676                       # number of overall misses
system.l2.demand_miss_latency::.switch_cpus.inst      4851000                       # number of demand (read+write) miss cycles
system.l2.demand_miss_latency::.switch_cpus.data 115931226500                       # number of demand (read+write) miss cycles
system.l2.demand_miss_latency::total     115936077500                       # number of demand (read+write) miss cycles
system.l2.overall_miss_latency::.switch_cpus.inst      4851000                       # number of overall miss cycles
system.l2.overall_miss_latency::.switch_cpus.data 115931226500                       # number of overall miss cycles
system.l2.overall_miss_latency::total    115936077500                       # number of overall miss cycles
system.l2.demand_accesses::.cpu.inst                1                       # number of demand (read+write) accesses
system.l2.demand_accesses::.cpu.data                2                       # number of demand (read+write) accesses
system.l2.demand_accesses::.switch_cpus.inst           61                       # number of demand (read+write) accesses
system.l2.demand_accesses::.switch_cpus.data      1418227                       # number of demand (read+write) accesses
system.l2.demand_accesses::total              1418291                       # number of demand (read+write) accesses
system.l2.overall_accesses::.cpu.inst               1                       # number of overall (read+write) accesses
system.l2.overall_accesses::.cpu.data               2                       # number of overall (read+write) accesses
system.l2.overall_accesses::.switch_cpus.inst           61                       # number of overall (read+write) accesses
system.l2.overall_accesses::.switch_cpus.data      1418227                       # number of overall (read+write) accesses
system.l2.overall_accesses::total             1418291                       # number of overall (read+write) accesses
system.l2.demand_miss_rate::.cpu.inst               1                       # miss rate for demand accesses
system.l2.demand_miss_rate::.cpu.data               1                       # miss rate for demand accesses
system.l2.demand_miss_rate::.switch_cpus.inst            1                       # miss rate for demand accesses
system.l2.demand_miss_rate::.switch_cpus.data     0.807072                       # miss rate for demand accesses
system.l2.demand_miss_rate::total            0.807081                       # miss rate for demand accesses
system.l2.overall_miss_rate::.cpu.inst              1                       # miss rate for overall accesses
system.l2.overall_miss_rate::.cpu.data              1                       # miss rate for overall accesses
system.l2.overall_miss_rate::.switch_cpus.inst            1                       # miss rate for overall accesses
system.l2.overall_miss_rate::.switch_cpus.data     0.807072                       # miss rate for overall accesses
system.l2.overall_miss_rate::total           0.807081                       # miss rate for overall accesses
system.l2.demand_avg_miss_latency::.switch_cpus.inst 79524.590164                       # average overall miss latency
system.l2.demand_avg_miss_latency::.switch_cpus.data 101284.301143                       # average overall miss latency
system.l2.demand_avg_miss_latency::total 101282.876115                       # average overall miss latency
system.l2.overall_avg_miss_latency::.switch_cpus.inst 79524.590164                       # average overall miss latency
system.l2.overall_avg_miss_latency::.switch_cpus.data 101284.301143                       # average overall miss latency
system.l2.overall_avg_miss_latency::total 101282.876115                       # average overall miss latency
system.l2.blocked_cycles::no_mshrs                  0                       # number of cycles access was blocked
system.l2.blocked_cycles::no_targets                0                       # number of cycles access was blocked
system.l2.blocked::no_mshrs                         0                       # number of cycles access was blocked
system.l2.blocked::no_targets                       0                       # number of cycles access was blocked
system.l2.avg_blocked_cycles::no_mshrs            nan                       # average number of cycles each access was blocked
system.l2.avg_blocked_cycles::no_targets          nan                       # average number of cycles each access was blocked
system.l2.writebacks::.writebacks               51698                       # number of writebacks
system.l2.writebacks::total                     51698                       # number of writebacks
system.l2.demand_mshr_misses::.switch_cpus.inst           61                       # number of demand (read+write) MSHR misses
system.l2.demand_mshr_misses::.switch_cpus.data      1144612                       # number of demand (read+write) MSHR misses
system.l2.demand_mshr_misses::total           1144673                       # number of demand (read+write) MSHR misses
system.l2.overall_mshr_misses::.switch_cpus.inst           61                       # number of overall MSHR misses
system.l2.overall_mshr_misses::.switch_cpus.data      1144612                       # number of overall MSHR misses
system.l2.overall_mshr_misses::total          1144673                       # number of overall MSHR misses
system.l2.demand_mshr_miss_latency::.switch_cpus.inst      4241000                       # number of demand (read+write) MSHR miss cycles
system.l2.demand_mshr_miss_latency::.switch_cpus.data 104485136500                       # number of demand (read+write) MSHR miss cycles
system.l2.demand_mshr_miss_latency::total 104489377500                       # number of demand (read+write) MSHR miss cycles
system.l2.overall_mshr_miss_latency::.switch_cpus.inst      4241000                       # number of overall MSHR miss cycles
system.l2.overall_mshr_miss_latency::.switch_cpus.data 104485136500                       # number of overall MSHR miss cycles
system.l2.overall_mshr_miss_latency::total 104489377500                       # number of overall MSHR miss cycles
system.l2.demand_mshr_miss_rate::.switch_cpus.inst            1                       # mshr miss rate for demand accesses
system.l2.demand_mshr_miss_rate::.switch_cpus.data     0.807072                       # mshr miss rate for demand accesses
system.l2.demand_mshr_miss_rate::total       0.807079                       # mshr miss rate for demand accesses
system.l2.overall_mshr_miss_rate::.switch_cpus.inst            1                       # mshr miss rate for overall accesses
system.l2.overall_mshr_miss_rate::.switch_cpus.data     0.807072                       # mshr miss rate for overall accesses
system.l2.overall_mshr_miss_rate::total      0.807079                       # mshr miss rate for overall accesses
system.l2.demand_avg_mshr_miss_latency::.switch_cpus.inst 69524.590164                       # average overall mshr miss latency
system.l2.demand_avg_mshr_miss_latency::.switch_cpus.data 91284.327353                       # average overall mshr miss latency
system.l2.demand_avg_mshr_miss_latency::total 91283.167769                       # average overall mshr miss latency
system.l2.overall_avg_mshr_miss_latency::.switch_cpus.inst 69524.590164                       # average overall mshr miss latency
system.l2.overall_avg_mshr_miss_latency::.switch_cpus.data 91284.327353                       # average overall mshr miss latency
system.l2.overall_avg_mshr_miss_latency::total 91283.167769                       # average overall mshr miss latency
system.l2.replacements                        1167289                       # number of replacements
system.l2.WritebackDirty_hits::.writebacks        81682                       # number of WritebackDirty hits
system.l2.WritebackDirty_hits::total            81682                       # number of WritebackDirty hits
system.l2.WritebackDirty_accesses::.writebacks        81682                       # number of WritebackDirty accesses(hits+misses)
system.l2.WritebackDirty_accesses::total        81682                       # number of WritebackDirty accesses(hits+misses)
system.l2.CleanEvict_mshr_misses::.writebacks       289668                       # number of CleanEvict MSHR misses
system.l2.CleanEvict_mshr_misses::total        289668                       # number of CleanEvict MSHR misses
system.l2.CleanEvict_mshr_miss_rate::.writebacks          inf                       # mshr miss rate for CleanEvict accesses
system.l2.CleanEvict_mshr_miss_rate::total          inf                       # mshr miss rate for CleanEvict accesses
system.l2.ReadExReq_hits::.switch_cpus.data         3535                       # number of ReadExReq hits
system.l2.ReadExReq_hits::total                  3535                       # number of ReadExReq hits
system.l2.ReadExReq_misses::.switch_cpus.data         4449                       # number of ReadExReq misses
system.l2.ReadExReq_misses::total                4449                       # number of ReadExReq misses
system.l2.ReadExReq_miss_latency::.switch_cpus.data    377316500                       # number of ReadExReq miss cycles
system.l2.ReadExReq_miss_latency::total     377316500                       # number of ReadExReq miss cycles
system.l2.ReadExReq_accesses::.switch_cpus.data         7984                       # number of ReadExReq accesses(hits+misses)
system.l2.ReadExReq_accesses::total              7984                       # number of ReadExReq accesses(hits+misses)
system.l2.ReadExReq_miss_rate::.switch_cpus.data     0.557239                       # miss rate for ReadExReq accesses
system.l2.ReadExReq_miss_rate::total         0.557239                       # miss rate for ReadExReq accesses
system.l2.ReadExReq_avg_miss_latency::.switch_cpus.data 84809.282985                       # average ReadExReq miss latency
system.l2.ReadExReq_avg_miss_latency::total 84809.282985                       # average ReadExReq miss latency
system.l2.ReadExReq_mshr_misses::.switch_cpus.data         4449                       # number of ReadExReq MSHR misses
system.l2.ReadExReq_mshr_misses::total           4449                       # number of ReadExReq MSHR misses
system.l2.ReadExReq_mshr_miss_latency::.switch_cpus.data    332826500                       # number of ReadExReq MSHR miss cycles
system.l2.ReadExReq_mshr_miss_latency::total    332826500                       # number of ReadExReq MSHR miss cycles
system.l2.ReadExReq_mshr_miss_rate::.switch_cpus.data     0.557239                       # mshr miss rate for ReadExReq accesses
system.l2.ReadExReq_mshr_miss_rate::total     0.557239                       # mshr miss rate for ReadExReq accesses
system.l2.ReadExReq_avg_mshr_miss_latency::.switch_cpus.data 74809.282985                       # average ReadExReq mshr miss latency
system.l2.ReadExReq_avg_mshr_miss_latency::total 74809.282985                       # average ReadExReq mshr miss latency
system.l2.ReadCleanReq_misses::.cpu.inst            1                       # number of ReadCleanReq misses
system.l2.ReadCleanReq_misses::.switch_cpus.inst           61                       # number of ReadCleanReq misses
system.l2.ReadCleanReq_misses::total               62                       # number of ReadCleanReq misses
system.l2.ReadCleanReq_miss_latency::.switch_cpus.inst      4851000                       # number of ReadCleanReq miss cycles
system.l2.ReadCleanReq_miss_latency::total      4851000                       # number of ReadCleanReq miss cycles
system.l2.ReadCleanReq_accesses::.cpu.inst            1                       # number of ReadCleanReq accesses(hits+misses)
system.l2.ReadCleanReq_accesses::.switch_cpus.inst           61                       # number of ReadCleanReq accesses(hits+misses)
system.l2.ReadCleanReq_accesses::total             62                       # number of ReadCleanReq accesses(hits+misses)
system.l2.ReadCleanReq_miss_rate::.cpu.inst            1                       # miss rate for ReadCleanReq accesses
system.l2.ReadCleanReq_miss_rate::.switch_cpus.inst            1                       # miss rate for ReadCleanReq accesses
system.l2.ReadCleanReq_miss_rate::total             1                       # miss rate for ReadCleanReq accesses
system.l2.ReadCleanReq_avg_miss_latency::.switch_cpus.inst 79524.590164                       # average ReadCleanReq miss latency
system.l2.ReadCleanReq_avg_miss_latency::total 78241.935484                       # average ReadCleanReq miss latency
system.l2.ReadCleanReq_mshr_misses::.switch_cpus.inst           61                       # number of ReadCleanReq MSHR misses
system.l2.ReadCleanReq_mshr_misses::total           61                       # number of ReadCleanReq MSHR misses
system.l2.ReadCleanReq_mshr_miss_latency::.switch_cpus.inst      4241000                       # number of ReadCleanReq MSHR miss cycles
system.l2.ReadCleanReq_mshr_miss_latency::total      4241000                       # number of ReadCleanReq MSHR miss cycles
system.l2.ReadCleanReq_mshr_miss_rate::.switch_cpus.inst            1                       # mshr miss rate for ReadCleanReq accesses
system.l2.ReadCleanReq_mshr_miss_rate::total     0.983871                       # mshr miss rate for ReadCleanReq accesses
system.l2.ReadCleanReq_avg_mshr_miss_latency::.switch_cpus.inst 69524.590164                       # average ReadCleanReq mshr miss latency
system.l2.ReadCleanReq_avg_mshr_miss_latency::total 69524.590164                       # average ReadCleanReq mshr miss latency
system.l2.ReadSharedReq_hits::.switch_cpus.data       270080                       # number of ReadSharedReq hits
system.l2.ReadSharedReq_hits::total            270080                       # number of ReadSharedReq hits
system.l2.ReadSharedReq_misses::.cpu.data            2                       # number of ReadSharedReq misses
[...]
system.cpu.icache.tags.age_task_id_blocks_1024::4           62                       # Occupied blocks per task id
system.cpu.icache.tags.occ_task_id_percent::1024     0.121094                       # Percentage of cache occupancy per task id
system.cpu.icache.tags.tag_accesses           2700008                       # Number of tag accesses
system.cpu.icache.tags.data_accesses          2700008                       # Number of data accesses
system.cpu.dtb.walker.pwrStateResidencyTicks::UNDEFINED 190301263779500                       # Cumulative time (in ticks) in various power states
system.cpu.interrupts.clk_domain.clock           8000                       # Clock period in ticks
system.cpu.itb_walker_cache.pwrStateResidencyTicks::UNDEFINED 190301263779500                       # Cumulative time (in ticks) in various power states
system.cpu.itb_walker_cache.blocked_cycles::no_mshrs            0                       # number of cycles access was blocked
system.cpu.itb_walker_cache.blocked_cycles::no_targets            0                       # number of cycles access was blocked
system.cpu.itb_walker_cache.blocked::no_mshrs            0                       # number of cycles access was blocked
system.cpu.itb_walker_cache.blocked::no_targets            0                       # number of cycles access was blocked
system.cpu.itb_walker_cache.avg_blocked_cycles::no_mshrs          nan                       # average number of cycles each access was blocked
system.cpu.itb_walker_cache.avg_blocked_cycles::no_targets          nan                       # average number of cycles each access was blocked
system.cpu.itb_walker_cache.replacements            0                       # number of replacements
system.cpu.itb_walker_cache.tags.pwrStateResidencyTicks::UNDEFINED 190301263779500                       # Cumulative time (in ticks) in various power states
system.cpu.itb_walker_cache.tags.tagsinuse            0                       # Cycle average of tags in use
system.cpu.itb_walker_cache.tags.total_refs            0                       # Total number of references to valid blocks.
system.cpu.itb_walker_cache.tags.sampled_refs            0                       # Sample count of references to valid blocks.
system.cpu.itb_walker_cache.tags.avg_refs          nan                       # Average number of references to valid blocks.
system.cpu.itb_walker_cache.tags.warmup_cycle            0                       # Cycle when the warmup percentage was hit.
system.cpu.itb_walker_cache.tags.tag_accesses            0                       # Number of tag accesses
system.cpu.itb_walker_cache.tags.data_accesses            0                       # Number of data accesses
system.cpu.itb.walker.pwrStateResidencyTicks::UNDEFINED 190301263779500                       # Cumulative time (in ticks) in various power states
system.cpu.dtb_walker_cache.pwrStateResidencyTicks::UNDEFINED 190301263779500                       # Cumulative time (in ticks) in various power states
system.cpu.dtb_walker_cache.blocked_cycles::no_mshrs            0                       # number of cycles access was blocked
system.cpu.dtb_walker_cache.blocked_cycles::no_targets            0                       # number of cycles access was blocked
system.cpu.dtb_walker_cache.blocked::no_mshrs            0                       # number of cycles access was blocked
system.cpu.dtb_walker_cache.blocked::no_targets            0                       # number of cycles access was blocked
system.cpu.dtb_walker_cache.avg_blocked_cycles::no_mshrs          nan                       # average number of cycles each access was blocked
system.cpu.dtb_walker_cache.avg_blocked_cycles::no_targets          nan                       # average number of cycles each access was blocked
system.cpu.dtb_walker_cache.replacements            0                       # number of replacements
system.cpu.dtb_walker_cache.tags.pwrStateResidencyTicks::UNDEFINED 190301263779500                       # Cumulative time (in ticks) in various power states
system.cpu.dtb_walker_cache.tags.tagsinuse            0                       # Cycle average of tags in use
system.cpu.dtb_walker_cache.tags.total_refs            0                       # Total number of references to valid blocks.
system.cpu.dtb_walker_cache.tags.sampled_refs            0                       # Sample count of references to valid blocks.
system.cpu.dtb_walker_cache.tags.avg_refs          nan                       # Average number of references to valid blocks.
system.cpu.dtb_walker_cache.tags.warmup_cycle            0                       # Cycle when the warmup percentage was hit.
system.cpu.dtb_walker_cache.tags.tag_accesses            0                       # Number of tag accesses
system.cpu.dtb_walker_cache.tags.data_accesses            0                       # Number of data accesses
system.cpu.dcache.pwrStateResidencyTicks::UNDEFINED 190301263779500                       # Cumulative time (in ticks) in various power states
system.cpu.dcache.demand_hits::.switch_cpus.data      4838082                       # number of demand (read+write) hits
system.cpu.dcache.demand_hits::total          4838082                       # number of demand (read+write) hits
system.cpu.dcache.overall_hits::.switch_cpus.data      4838082                       # number of overall hits
system.cpu.dcache.overall_hits::total         4838082                       # number of overall hits
system.cpu.dcache.demand_misses::.cpu.data            2                       # number of demand (read+write) misses
system.cpu.dcache.demand_misses::.switch_cpus.data     12968164                       # number of demand (read+write) misses
system.cpu.dcache.demand_misses::total       12968166                       # number of demand (read+write) misses
system.cpu.dcache.overall_misses::.cpu.data            2                       # number of overall misses
system.cpu.dcache.overall_misses::.switch_cpus.data     12968164                       # number of overall misses
system.cpu.dcache.overall_misses::total      12968166                       # number of overall misses
system.cpu.dcache.demand_miss_latency::.switch_cpus.data 983369693045                       # number of demand (read+write) miss cycles
system.cpu.dcache.demand_miss_latency::total 983369693045                       # number of demand (read+write) miss cycles
system.cpu.dcache.overall_miss_latency::.switch_cpus.data 983369693045                       # number of overall miss cycles
system.cpu.dcache.overall_miss_latency::total 983369693045                       # number of overall miss cycles
system.cpu.dcache.demand_accesses::.cpu.data            2                       # number of demand (read+write) accesses
system.cpu.dcache.demand_accesses::.switch_cpus.data     17806246                       # number of demand (read+write) accesses
system.cpu.dcache.demand_accesses::total     17806248                       # number of demand (read+write) accesses
system.cpu.dcache.overall_accesses::.cpu.data            2                       # number of overall (read+write) accesses
system.cpu.dcache.overall_accesses::.switch_cpus.data     17806246                       # number of overall (read+write) accesses
system.cpu.dcache.overall_accesses::total     17806248                       # number of overall (read+write) accesses
system.cpu.dcache.demand_miss_rate::.cpu.data            1                       # miss rate for demand accesses
system.cpu.dcache.demand_miss_rate::.switch_cpus.data     0.728293                       # miss rate for demand accesses
system.cpu.dcache.demand_miss_rate::total     0.728293                       # miss rate for demand accesses
system.cpu.dcache.overall_miss_rate::.cpu.data            1                       # miss rate for overall accesses
system.cpu.dcache.overall_miss_rate::.switch_cpus.data     0.728293                       # miss rate for overall accesses
system.cpu.dcache.overall_miss_rate::total     0.728293                       # miss rate for overall accesses
system.cpu.dcache.demand_avg_miss_latency::.switch_cpus.data 75829.523211                       # average overall miss latency
system.cpu.dcache.demand_avg_miss_latency::total 75829.511517                       # average overall miss latency
system.cpu.dcache.overall_avg_miss_latency::.switch_cpus.data 75829.523211                       # average overall miss latency
system.cpu.dcache.overall_avg_miss_latency::total 75829.511517                       # average overall miss latency
system.cpu.dcache.blocked_cycles::no_mshrs    264085018                       # number of cycles access was blocked
system.cpu.dcache.blocked_cycles::no_targets           65                       # number of cycles access was blocked
system.cpu.dcache.blocked::no_mshrs           6318589                       # number of cycles access was blocked
system.cpu.dcache.blocked::no_targets               1                       # number of cycles access was blocked
system.cpu.dcache.avg_blocked_cycles::no_mshrs    41.794935                       # average number of cycles each access was blocked
system.cpu.dcache.avg_blocked_cycles::no_targets           65                       # average number of cycles each access was blocked
system.cpu.dcache.writebacks::.writebacks       125152                       # number of writebacks
system.cpu.dcache.writebacks::total            125152                       # number of writebacks
system.cpu.dcache.demand_mshr_hits::.switch_cpus.data      6395650                       # number of demand (read+write) MSHR hits
system.cpu.dcache.demand_mshr_hits::total      6395650                       # number of demand (read+write) MSHR hits
system.cpu.dcache.overall_mshr_hits::.switch_cpus.data      6395650                       # number of overall MSHR hits
system.cpu.dcache.overall_mshr_hits::total      6395650                       # number of overall MSHR hits
system.cpu.dcache.demand_mshr_misses::.switch_cpus.data      6572514                       # number of demand (read+write) MSHR misses
system.cpu.dcache.demand_mshr_misses::total      6572514                       # number of demand (read+write) MSHR misses
system.cpu.dcache.overall_mshr_misses::.switch_cpus.data      6572514                       # number of overall MSHR misses
system.cpu.dcache.overall_mshr_misses::total      6572514                       # number of overall MSHR misses
system.cpu.dcache.demand_mshr_miss_latency::.switch_cpus.data 564865631630                       # number of demand (read+write) MSHR miss cycles
system.cpu.dcache.demand_mshr_miss_latency::total 564865631630                       # number of demand (read+write) MSHR miss cycles
system.cpu.dcache.overall_mshr_miss_latency::.switch_cpus.data 564865631630                       # number of overall MSHR miss cycles
system.cpu.dcache.overall_mshr_miss_latency::total 564865631630                       # number of overall MSHR miss cycles
system.cpu.dcache.demand_mshr_miss_rate::.switch_cpus.data     0.369113                       # mshr miss rate for demand accesses
system.cpu.dcache.demand_mshr_miss_rate::total     0.369113                       # mshr miss rate for demand accesses
system.cpu.dcache.overall_mshr_miss_rate::.switch_cpus.data     0.369113                       # mshr miss rate for overall accesses
system.cpu.dcache.overall_mshr_miss_rate::total     0.369113                       # mshr miss rate for overall accesses
system.cpu.dcache.demand_avg_mshr_miss_latency::.switch_cpus.data 85943.617865                       # average overall mshr miss latency
system.cpu.dcache.demand_avg_mshr_miss_latency::total 85943.617865                       # average overall mshr miss latency
system.cpu.dcache.overall_avg_mshr_miss_latency::.switch_cpus.data 85943.617865                       # average overall mshr miss latency
system.cpu.dcache.overall_avg_mshr_miss_latency::total 85943.617865                       # average overall mshr miss latency
system.cpu.dcache.replacements                6571488                       # number of replacements
system.cpu.dcache.ReadReq_hits::.switch_cpus.data      4442139                       # number of ReadReq hits
system.cpu.dcache.ReadReq_hits::total         4442139                       # number of ReadReq hits
system.cpu.dcache.ReadReq_misses::.cpu.data            2                       # number of ReadReq misses
system.cpu.dcache.ReadReq_misses::.switch_cpus.data     12957126                       # number of ReadReq misses
system.cpu.dcache.ReadReq_misses::total      12957128                       # number of ReadReq misses
system.cpu.dcache.ReadReq_miss_latency::.switch_cpus.data 982781914000                       # number of ReadReq miss cycles
system.cpu.dcache.ReadReq_miss_latency::total 982781914000                       # number of ReadReq miss cycles
system.cpu.dcache.ReadReq_accesses::.cpu.data            2                       # number of ReadReq accesses(hits+misses)
system.cpu.dcache.ReadReq_accesses::.switch_cpus.data     17399265                       # number of ReadReq accesses(hits+misses)
system.cpu.dcache.ReadReq_accesses::total     17399267                       # number of ReadReq accesses(hits+misses)
system.cpu.dcache.ReadReq_miss_rate::.cpu.data            1                       # miss rate for ReadReq accesses
system.cpu.dcache.ReadReq_miss_rate::.switch_cpus.data     0.744694                       # miss rate for ReadReq accesses
system.cpu.dcache.ReadReq_miss_rate::total     0.744694                       # miss rate for ReadReq accesses
system.cpu.dcache.ReadReq_avg_miss_latency::.switch_cpus.data 75848.757973                       # average ReadReq miss latency
system.cpu.dcache.ReadReq_avg_miss_latency::total 75848.746265                       # average ReadReq miss latency
system.cpu.dcache.ReadReq_mshr_hits::.switch_cpus.data      6395380                       # number of ReadReq MSHR hits
system.cpu.dcache.ReadReq_mshr_hits::total      6395380                       # number of ReadReq MSHR hits
system.cpu.dcache.ReadReq_mshr_misses::.switch_cpus.data      6561746                       # number of ReadReq MSHR misses
system.cpu.dcache.ReadReq_mshr_misses::total      6561746                       # number of ReadReq MSHR misses
system.cpu.dcache.ReadReq_mshr_miss_latency::.switch_cpus.data 564293913000                       # number of ReadReq MSHR miss cycles
system.cpu.dcache.ReadReq_mshr_miss_latency::total 564293913000                       # number of ReadReq MSHR miss cycles
system.cpu.dcache.ReadReq_mshr_miss_rate::.switch_cpus.data     0.377128                       # mshr miss rate for ReadReq accesses
system.cpu.dcache.ReadReq_mshr_miss_rate::total     0.377128                       # mshr miss rate for ReadReq accesses
system.cpu.dcache.ReadReq_avg_mshr_miss_latency::.switch_cpus.data 85997.524592                       # average ReadReq mshr miss latency
system.cpu.dcache.ReadReq_avg_mshr_miss_latency::total 85997.524592                       # average ReadReq mshr miss latency
system.cpu.dcache.WriteReq_hits::.switch_cpus.data       395943                       # number of WriteReq hits
system.cpu.dcache.WriteReq_hits::total         395943                       # number of WriteReq hits
system.cpu.dcache.WriteReq_misses::.switch_cpus.data        11038                       # number of WriteReq misses
system.cpu.dcache.WriteReq_misses::total        11038                       # number of WriteReq misses
system.cpu.dcache.WriteReq_miss_latency::.switch_cpus.data    587779045                       # number of WriteReq miss cycles
system.cpu.dcache.WriteReq_miss_latency::total    587779045                       # number of WriteReq miss cycles
system.cpu.dcache.WriteReq_accesses::.switch_cpus.data       406981                       # number of WriteReq accesses(hits+misses)
system.cpu.dcache.WriteReq_accesses::total       406981                       # number of WriteReq accesses(hits+misses)
system.cpu.dcache.WriteReq_miss_rate::.switch_cpus.data     0.027122                       # miss rate for WriteReq accesses
system.cpu.dcache.WriteReq_miss_rate::total     0.027122                       # miss rate for WriteReq accesses
system.cpu.dcache.WriteReq_avg_miss_latency::.switch_cpus.data 53250.502355                       # average WriteReq miss latency
system.cpu.dcache.WriteReq_avg_miss_latency::total 53250.502355                       # average WriteReq miss latency
system.cpu.dcache.WriteReq_mshr_hits::.switch_cpus.data          270                       # number of WriteReq MSHR hits
system.cpu.dcache.WriteReq_mshr_hits::total          270                       # number of WriteReq MSHR hits
system.cpu.dcache.WriteReq_mshr_misses::.switch_cpus.data        10768                       # number of WriteReq MSHR misses
system.cpu.dcache.WriteReq_mshr_misses::total        10768                       # number of WriteReq MSHR misses
system.cpu.dcache.WriteReq_mshr_miss_latency::.switch_cpus.data    571718630                       # number of WriteReq MSHR miss cycles
system.cpu.dcache.WriteReq_mshr_miss_latency::total    571718630                       # number of WriteReq MSHR miss cycles
system.cpu.dcache.WriteReq_mshr_miss_rate::.switch_cpus.data     0.026458                       # mshr miss rate for WriteReq accesses
system.cpu.dcache.WriteReq_mshr_miss_rate::total     0.026458                       # mshr miss rate for WriteReq accesses
system.cpu.dcache.WriteReq_avg_mshr_miss_latency::.switch_cpus.data 53094.226412                       # average WriteReq mshr miss latency
system.cpu.dcache.WriteReq_avg_mshr_miss_latency::total 53094.226412                       # average WriteReq mshr miss latency
system.cpu.dcache.tags.pwrStateResidencyTicks::UNDEFINED 190301263779500                       # Cumulative time (in ticks) in various power states
system.cpu.dcache.tags.tagsinuse             0.810971                       # Cycle average of tags in use
system.cpu.dcache.tags.total_refs            11410594                       # Total number of references to valid blocks.
system.cpu.dcache.tags.sampled_refs           6572512                       # Sample count of references to valid blocks.
system.cpu.dcache.tags.avg_refs              1.736109                       # Average number of references to valid blocks.
system.cpu.dcache.tags.warmup_cycle      190150534270000                       # Cycle when the warmup percentage was hit.
system.cpu.dcache.tags.occ_blocks::.cpu.data     0.000000                       # Average occupied blocks per requestor
system.cpu.dcache.tags.occ_blocks::.switch_cpus.data     0.810971                       # Average occupied blocks per requestor
system.cpu.dcache.tags.occ_percent::.cpu.data     0.000000                       # Average percentage of cache occupancy
system.cpu.dcache.tags.occ_percent::.switch_cpus.data     0.000792                       # Average percentage of cache occupancy
system.cpu.dcache.tags.occ_percent::total     0.000792                       # Average percentage of cache occupancy
system.cpu.dcache.tags.occ_task_id_blocks::1024         1024                       # Occupied blocks per task id
system.cpu.dcache.tags.age_task_id_blocks_1024::0          412                       # Occupied blocks per task id
system.cpu.dcache.tags.age_task_id_blocks_1024::1          608                       # Occupied blocks per task id
system.cpu.dcache.tags.age_task_id_blocks_1024::2            4                       # Occupied blocks per task id
system.cpu.dcache.tags.occ_task_id_percent::1024            1                       # Percentage of cache occupancy per task id
system.cpu.dcache.tags.tag_accesses          42185008                       # Number of tag accesses
system.cpu.dcache.tags.data_accesses         42185008                       # Number of data accesses

---------- End Simulation Statistics   ----------
