
---------- Begin Simulation Statistics ----------
final_tick                               560740943133000                       # Number of ticks from beginning of simulation (restored from checkpoints and never reset)
host_inst_rate                                  43328                       # Simulator instruction rate (inst/s)
host_mem_usage                                 880204                       # Number of bytes of host memory used
host_op_rate                                    97390                       # Simulator op (including micro ops) rate (op/s)
host_seconds                                   230.80                       # Real time elapsed on the host
host_tick_rate                               29964318                       # Simulator tick rate (ticks/s)
sim_freq                                 1000000000000                       # Frequency of simulated ticks
sim_insts                                    10000008                       # Number of instructions simulated
sim_ops                                      22477347                       # Number of ops (including micro ops) simulated
sim_seconds                                  0.006916                       # Number of seconds simulated
sim_ticks                                  6915683000                       # Number of ticks simulated
system.cpu.committedInsts                           8                       # Number of instructions committed
system.cpu.committedOps                            16                       # Number of ops (including micro ops) committed
system.cpu.dtb.rdAccesses                           2                       # TLB accesses on read requests
system.cpu.dtb.rdMisses                             0                       # TLB misses on read requests
system.cpu.dtb.wrAccesses                           4                       # TLB accesses on write requests
system.cpu.dtb.wrMisses                             0                       # TLB misses on write requests
system.cpu.idle_fraction                            0                       # Percentage of idle cycles
system.cpu.itb.rdAccesses                           0                       # TLB accesses on read requests
system.cpu.itb.rdMisses                             0                       # TLB misses on read requests
system.cpu.itb.wrAccesses                          13                       # TLB accesses on write requests
system.cpu.itb.wrMisses                             0                       # TLB misses on write requests
system.cpu.not_idle_fraction                        1                       # Percentage of non-idle cycles
system.cpu.numCycles                               21                       # number of cpu cycles simulated
system.cpu.numWorkItemsCompleted                    0                       # number of work items this cpu completed
system.cpu.numWorkItemsStarted                      0                       # number of work items this cpu started
system.cpu.num_busy_cycles                         21                       # Number of busy cycles
system.cpu.num_conditional_control_insts            0                       # number of instructions that are conditional controls
system.cpu.num_fp_alu_accesses                     16                       # Number of float alu accesses
system.cpu.num_fp_insts                            16                       # number of float instructions
system.cpu.num_fp_register_reads                   32                       # number of times the floating registers were read
system.cpu.num_fp_register_writes                  12                       # number of times the floating registers were written
system.cpu.num_func_calls                           0                       # number of times a function call or return occured
system.cpu.num_idle_cycles                          0                       # Number of idle cycles
system.cpu.num_int_alu_accesses                     6                       # Number of integer alu accesses
system.cpu.num_int_insts                            6                       # number of integer instructions
system.cpu.num_int_register_reads                  18                       # number of times the integer registers were read
system.cpu.num_int_register_writes                  0                       # number of times the integer registers were written
system.cpu.num_load_insts                           2                       # Number of load instructions
system.cpu.num_mem_refs                             6                       # number of memory refs
system.cpu.num_store_insts                          4                       # Number of store instructions
system.cpu.num_vec_alu_accesses                     0                       # Number of vector alu accesses
system.cpu.num_vec_insts                            0                       # number of vector instructions
system.cpu.num_vec_register_reads                   0                       # number of times the vector registers were read
system.cpu.num_vec_register_writes                  0                       # number of times the vector registers were written
system.cpu.op_class::No_OpClass                     0      0.00%      0.00% # Class of executed instruction
system.cpu.op_class::IntAlu                         2     12.50%     12.50% # Class of executed instruction
system.cpu.op_class::IntMult                        0      0.00%     12.50% # Class of executed instruction
system.cpu.op_class::IntDiv                         0      0.00%     12.50% # Class of executed instruction
system.cpu.op_class::FloatAdd                       0      0.00%     12.50% # Class of executed instruction
system.cpu.op_class::FloatCmp                       0      0.00%     12.50% # Class of executed instruction
system.cpu.op_class::FloatCvt                       0      0.00%     12.50% # Class of executed instruction
system.cpu.op_class::FloatMult                      0      0.00%     12.50% # Class of executed instruction
system.cpu.op_class::FloatMultAcc                   0      0.00%     12.50% # Class of executed instruction
system.cpu.op_class::FloatDiv                       0      0.00%     12.50% # Class of executed instruction
system.cpu.op_class::FloatMisc                      0      0.00%     12.50% # Class of executed instruction
system.cpu.op_class::FloatSqrt                      0      0.00%     12.50% # Class of executed instruction
system.cpu.op_class::SimdAdd                        0      0.00%     12.50% # Class of executed instruction
system.cpu.op_class::SimdAddAcc                     0      0.00%     12.50% # Class of executed instruction
system.cpu.op_class::SimdAlu                        0      0.00%     12.50% # Class of executed instruction
system.cpu.op_class::SimdCmp                        0      0.00%     12.50% # Class of executed instruction
system.cpu.op_class::SimdCvt                        0      0.00%     12.50% # Class of executed instruction
system.cpu.op_class::SimdMisc                       0      0.00%     12.50% # Class of executed instruction
system.cpu.op_class::SimdMult                       0      0.00%     12.50% # Class of executed instruction
system.cpu.op_class::SimdMultAcc                    0      0.00%     12.50% # Class of executed instruction
system.cpu.op_class::SimdShift                      0      0.00%     12.50% # Class of executed instruction
system.cpu.op_class::SimdShiftAcc                   0      0.00%     12.50% # Class of executed instruction
system.cpu.op_class::SimdDiv                        0      0.00%     12.50% # Class of executed instruction
system.cpu.op_class::SimdSqrt                       0      0.00%     12.50% # Class of executed instruction
system.cpu.op_class::SimdFloatAdd                   6     37.50%     50.00% # Class of executed instruction
system.cpu.op_class::SimdFloatAlu                   0      0.00%     50.00% # Class of executed instruction
system.cpu.op_class::SimdFloatCmp                   0      0.00%     50.00% # Class of executed instruction
system.cpu.op_class::SimdFloatCvt                   0      0.00%     50.00% # Class of executed instruction
system.cpu.op_class::SimdFloatDiv                   0      0.00%     50.00% # Class of executed instruction
system.cpu.op_class::SimdFloatMisc                  0      0.00%     50.00% # Class of executed instruction
system.cpu.op_class::SimdFloatMult                  2     12.50%     62.50% # Class of executed instruction
system.cpu.op_class::SimdFloatMultAcc               0      0.00%     62.50% # Class of executed instruction
system.cpu.op_class::SimdFloatSqrt                  0      0.00%     62.50% # Class of executed instruction
system.cpu.op_class::SimdReduceAdd                  0      0.00%     62.50% # Class of executed instruction
system.cpu.op_class::SimdReduceAlu                  0      0.00%     62.50% # Class of executed instruction
system.cpu.op_class::SimdReduceCmp                  0      0.00%     62.50% # Class of executed instruction
system.cpu.op_class::SimdFloatReduceAdd             0      0.00%     62.50% # Class of executed instruction
system.cpu.op_class::SimdFloatReduceCmp             0      0.00%     62.50% # Class of executed instruction
system.cpu.op_class::SimdAes                        0      0.00%     62.50% # Class of executed instruction
system.cpu.op_class::SimdAesMix                     0      0.00%     62.50% # Class of executed instruction
system.cpu.op_class::SimdSha1Hash                   0      0.00%     62.50% # Class of executed instruction
system.cpu.op_class::SimdSha1Hash2                  0      0.00%     62.50% # Class of executed instruction
system.cpu.op_class::SimdSha256Hash                 0      0.00%     62.50% # Class of executed instruction
system.cpu.op_class::SimdSha256Hash2                0      0.00%     62.50% # Class of executed instruction
system.cpu.op_class::SimdShaSigma2                  0      0.00%     62.50% # Class of executed instruction
system.cpu.op_class::SimdShaSigma3                  0      0.00%     62.50% # Class of executed instruction
system.cpu.op_class::SimdPredAlu                    0      0.00%     62.50% # Class of executed instruction
system.cpu.op_class::MemRead                        0      0.00%     62.50% # Class of executed instruction
system.cpu.op_class::MemWrite                       0      0.00%     62.50% # Class of executed instruction
system.cpu.op_class::FloatMemRead                   2     12.50%     75.00% # Class of executed instruction
system.cpu.op_class::FloatMemWrite                  4     25.00%    100.00% # Class of executed instruction
system.cpu.op_class::IprAccess                      0      0.00%    100.00% # Class of executed instruction
system.cpu.op_class::InstPrefetch                   0      0.00%    100.00% # Class of executed instruction
system.cpu.op_class::total                         16                       # Class of executed instruction
system.cpu.workload.numSyscalls                     0                       # Number of system calls
system.membus.snoop_filter.hit_multi_requests            0                       # Number of requests hitting in the snoop filter with multiple (>1) holders of the requested data.
system.membus.snoop_filter.hit_multi_snoops            0                       # Number of snoops hitting in the snoop filter with multiple (>1) holders of the requested data.
system.membus.snoop_filter.hit_single_requests        67019                       # Number of requests hitting in the snoop filter with a single holder of the requested data.
system.membus.snoop_filter.hit_single_snoops            0                       # Number of snoops hitting in the snoop filter with a single holder of the requested data.
system.membus.snoop_filter.tot_requests        142518                       # Total number of requests made to the snoop filter.
system.membus.snoop_filter.tot_snoops               0                       # Total number of snoops made to the snoop filter.
system.switch_cpus.branchPred.BTBCorrect            0                       # Number of correct BTB predictions (this stat may not work properly.
system.switch_cpus.branchPred.BTBHitPct      0.000000                       # BTB Hit Percentage
system.switch_cpus.branchPred.BTBHits               0                       # Number of BTB hits
system.switch_cpus.branchPred.BTBLookups        35111                       # Number of BTB lookups
system.switch_cpus.branchPred.RASInCorrect            0                       # Number of incorrect RAS predictions.
system.switch_cpus.branchPred.condIncorrect          789                       # Number of conditional branches incorrect
system.switch_cpus.branchPred.condPredicted        40200                       # Number of conditional branches predicted
system.switch_cpus.branchPred.indirectHits        28186                       # Number of indirect target hits.
system.switch_cpus.branchPred.indirectLookups        35111                       # Number of indirect predictor lookups.
system.switch_cpus.branchPred.indirectMisses         6925                       # Number of indirect misses.
system.switch_cpus.branchPred.lookups           45686                       # Number of BP lookups
system.switch_cpus.branchPred.usedRAS            5112                       # Number of times the RAS was used to get a target.
system.switch_cpus.branchPredindirectMispredicted           52                       # Number of mispredicted indirect branches.
system.switch_cpus.cc_regfile_reads            196501                       # number of cc regfile reads
system.switch_cpus.cc_regfile_writes           329314                       # number of cc regfile writes
system.switch_cpus.commit.amos                      0                       # Number of atomic instructions committed
system.switch_cpus.commit.branchMispredicts          789                       # The number of times a branch was mispredicted
system.switch_cpus.commit.branches              19425                       # Number of branches committed
system.switch_cpus.commit.bw_lim_events       1522629                       # number cycles where commit BW limit reached
system.switch_cpus.commit.commitNonSpecStalls          320                       # The number of times commit has been forced to stall to communicate backwards
system.switch_cpus.commit.commitSquashedInsts       468873                       # The number of squashed insts skipped by commit
system.switch_cpus.commit.committedInsts     10000000                       # Number of instructions committed
system.switch_cpus.commit.committedOps       22477331                       # Number of ops (including micro ops) committed
system.switch_cpus.commit.committed_per_cycle::samples     13735614                       # Number of insts commited each cycle
system.switch_cpus.commit.committed_per_cycle::mean     1.636427                       # Number of insts commited each cycle
system.switch_cpus.commit.committed_per_cycle::stdev     2.765209                       # Number of insts commited each cycle
system.switch_cpus.commit.committed_per_cycle::underflows            0      0.00%      0.00% # Number of insts commited each cycle
system.switch_cpus.commit.committed_per_cycle::0      8991219     65.46%     65.46% # Number of insts commited each cycle
system.switch_cpus.commit.committed_per_cycle::1       722925      5.26%     70.72% # Number of insts commited each cycle
system.switch_cpus.commit.committed_per_cycle::2       841486      6.13%     76.85% # Number of insts commited each cycle
system.switch_cpus.commit.committed_per_cycle::3       277567      2.02%     78.87% # Number of insts commited each cycle
system.switch_cpus.commit.committed_per_cycle::4       570194      4.15%     83.02% # Number of insts commited each cycle
system.switch_cpus.commit.committed_per_cycle::5       277434      2.02%     85.04% # Number of insts commited each cycle
system.switch_cpus.commit.committed_per_cycle::6       335365      2.44%     87.48% # Number of insts commited each cycle
system.switch_cpus.commit.committed_per_cycle::7       196795      1.43%     88.91% # Number of insts commited each cycle
system.switch_cpus.commit.committed_per_cycle::8      1522629     11.09%    100.00% # Number of insts commited each cycle
system.switch_cpus.commit.committed_per_cycle::overflows            0      0.00%    100.00% # Number of insts commited each cycle
system.switch_cpus.commit.committed_per_cycle::min_value            0                       # Number of insts commited each cycle
system.switch_cpus.commit.committed_per_cycle::max_value            8                       # Number of insts commited each cycle
system.switch_cpus.commit.committed_per_cycle::total     13735614                       # Number of insts commited each cycle
system.switch_cpus.commit.fp_insts           21302745                       # Number of committed floating point instructions.
system.switch_cpus.commit.function_calls          320                       # Number of function calls committed.
system.switch_cpus.commit.int_insts          10363713                       # Number of committed integer instructions.
system.switch_cpus.commit.loads               7651132                       # Number of loads committed
system.switch_cpus.commit.membars                   0                       # Number of memory barriers committed
system.switch_cpus.commit.op_class_0::No_OpClass          637      0.00%      0.00% # Class of committed instruction
system.switch_cpus.commit.op_class_0::IntAlu      3034804     13.50%     13.50% # Class of committed instruction
system.switch_cpus.commit.op_class_0::IntMult          658      0.00%     13.51% # Class of committed instruction
system.switch_cpus.commit.op_class_0::IntDiv            0      0.00%     13.51% # Class of committed instruction
system.switch_cpus.commit.op_class_0::FloatAdd          328      0.00%     13.51% # Class of committed instruction
system.switch_cpus.commit.op_class_0::FloatCmp            0      0.00%     13.51% # Class of committed instruction
system.switch_cpus.commit.op_class_0::FloatCvt            0      0.00%     13.51% # Class of committed instruction
system.switch_cpus.commit.op_class_0::FloatMult            0      0.00%     13.51% # Class of committed instruction
system.switch_cpus.commit.op_class_0::FloatMultAcc            0      0.00%     13.51% # Class of committed instruction
system.switch_cpus.commit.op_class_0::FloatDiv            0      0.00%     13.51% # Class of committed instruction
system.switch_cpus.commit.op_class_0::FloatMisc            0      0.00%     13.51% # Class of committed instruction
system.switch_cpus.commit.op_class_0::FloatSqrt            0      0.00%     13.51% # Class of committed instruction
system.switch_cpus.commit.op_class_0::SimdAdd            0      0.00%     13.51% # Class of committed instruction
system.switch_cpus.commit.op_class_0::SimdAddAcc            0      0.00%     13.51% # Class of committed instruction
system.switch_cpus.commit.op_class_0::SimdAlu        47726      0.21%     13.72% # Class of committed instruction
system.switch_cpus.commit.op_class_0::SimdCmp            0      0.00%     13.72% # Class of committed instruction
system.switch_cpus.commit.op_class_0::SimdCvt            0      0.00%     13.72% # Class of committed instruction
system.switch_cpus.commit.op_class_0::SimdMisc            0      0.00%     13.72% # Class of committed instruction
system.switch_cpus.commit.op_class_0::SimdMult            0      0.00%     13.72% # Class of committed instruction
system.switch_cpus.commit.op_class_0::SimdMultAcc            0      0.00%     13.72% # Class of committed instruction
system.switch_cpus.commit.op_class_0::SimdShift            0      0.00%     13.72% # Class of committed instruction
system.switch_cpus.commit.op_class_0::SimdShiftAcc            0      0.00%     13.72% # Class of committed instruction
system.switch_cpus.commit.op_class_0::SimdDiv            0      0.00%     13.72% # Class of committed instruction
system.switch_cpus.commit.op_class_0::SimdSqrt            0      0.00%     13.72% # Class of committed instruction
system.switch_cpus.commit.op_class_0::SimdFloatAdd      5476711     24.37%     38.09% # Class of committed instruction
system.switch_cpus.commit.op_class_0::SimdFloatAlu            0      0.00%     38.09% # Class of committed instruction
system.switch_cpus.commit.op_class_0::SimdFloatCmp            0      0.00%     38.09% # Class of committed instruction
system.switch_cpus.commit.op_class_0::SimdFloatCvt            0      0.00%     38.09% # Class of committed instruction
system.switch_cpus.commit.op_class_0::SimdFloatDiv        11440      0.05%     38.14% # Class of committed instruction
system.switch_cpus.commit.op_class_0::SimdFloatMisc            0      0.00%     38.14% # Class of committed instruction
system.switch_cpus.commit.op_class_0::SimdFloatMult      4002296     17.81%     55.94% # Class of committed instruction
system.switch_cpus.commit.op_class_0::SimdFloatMultAcc            0      0.00%     55.94% # Class of committed instruction
system.switch_cpus.commit.op_class_0::SimdFloatSqrt            0      0.00%     55.94% # Class of committed instruction
system.switch_cpus.commit.op_class_0::SimdReduceAdd            0      0.00%     55.94% # Class of committed instruction
system.switch_cpus.commit.op_class_0::SimdReduceAlu            0      0.00%     55.94% # Class of committed instruction
system.switch_cpus.commit.op_class_0::SimdReduceCmp            0      0.00%     55.94% # Class of committed instruction
system.switch_cpus.commit.op_class_0::SimdFloatReduceAdd            0      0.00%     55.94% # Class of committed instruction
system.switch_cpus.commit.op_class_0::SimdFloatReduceCmp            0      0.00%     55.94% # Class of committed instruction
system.switch_cpus.commit.op_class_0::SimdAes            0      0.00%     55.94% # Class of committed instruction
system.switch_cpus.commit.op_class_0::SimdAesMix            0      0.00%     55.94% # Class of committed instruction
system.switch_cpus.commit.op_class_0::SimdSha1Hash            0      0.00%     55.94% # Class of committed instruction
system.switch_cpus.commit.op_class_0::SimdSha1Hash2            0      0.00%     55.94% # Class of committed instruction
system.switch_cpus.commit.op_class_0::SimdSha256Hash            0      0.00%     55.94% # Class of committed instruction
system.switch_cpus.commit.op_class_0::SimdSha256Hash2            0      0.00%     55.94% # Class of committed instruction
system.switch_cpus.commit.op_class_0::SimdShaSigma2            0      0.00%     55.94% # Class of committed instruction
system.switch_cpus.commit.op_class_0::SimdShaSigma3            0      0.00%     55.94% # Class of committed instruction
system.switch_cpus.commit.op_class_0::SimdPredAlu            0      0.00%     55.94% # Class of committed instruction
system.switch_cpus.commit.op_class_0::MemRead       657014      2.92%     58.87% # Class of committed instruction
system.switch_cpus.commit.op_class_0::MemWrite        55633      0.25%     59.11% # Class of committed instruction
system.switch_cpus.commit.op_class_0::FloatMemRead      6994118     31.12%     90.23% # Class of committed instruction
system.switch_cpus.commit.op_class_0::FloatMemWrite      2195966      9.77%    100.00% # Class of committed instruction
system.switch_cpus.commit.op_class_0::IprAccess            0      0.00%    100.00% # Class of committed instruction
system.switch_cpus.commit.op_class_0::InstPrefetch            0      0.00%    100.00% # Class of committed instruction
system.switch_cpus.commit.op_class_0::total     22477331                       # Class of committed instruction
system.switch_cpus.commit.refs                9902731                       # Number of memory references committed
system.switch_cpus.commit.swp_count                 0                       # Number of s/w prefetches committed
system.switch_cpus.commit.vec_insts                 0                       # Number of committed Vector instructions.
system.switch_cpus.committedInsts            10000000                       # Number of Instructions Simulated
system.switch_cpus.committedOps              22477331                       # Number of Ops (including micro ops) Simulated
system.switch_cpus.cpi                       1.383134                       # CPI: Cycles Per Instruction
system.switch_cpus.cpi_total                 1.383134                       # CPI: Total CPI of All Threads
system.switch_cpus.decode.BlockedCycles       9982124                       # Number of cycles decode is blocked
system.switch_cpus.decode.DecodedInsts       23108091                       # Number of instructions handled by decode
system.switch_cpus.decode.IdleCycles           718679                       # Number of cycles decode is idle
system.switch_cpus.decode.RunCycles           2431143                       # Number of cycles decode is running
system.switch_cpus.decode.SquashCycles           6068                       # Number of cycles decode is squashing
system.switch_cpus.decode.UnblockCycles        658843                       # Number of cycles decode is unblocking
system.switch_cpus.dtb.rdAccesses             7786237                       # TLB accesses on read requests
system.switch_cpus.dtb.rdMisses                  1494                       # TLB misses on read requests
system.switch_cpus.dtb.wrAccesses             2366376                       # TLB accesses on write requests
system.switch_cpus.dtb.wrMisses                   569                       # TLB misses on write requests
system.switch_cpus.fetch.Branches               45686                       # Number of branches that fetch encountered
system.switch_cpus.fetch.CacheLines           1084027                       # Number of cache lines fetched
system.switch_cpus.fetch.Cycles              12684610                       # Number of cycles fetch has run and was not squashing or blocked
system.switch_cpus.fetch.IcacheSquashes           125                       # Number of outstanding Icache misses that were squashed
system.switch_cpus.fetch.Insts               10473091                       # Number of instructions fetch has processed
system.switch_cpus.fetch.SquashCycles           12136                       # Number of cycles fetch has spent squashing
system.switch_cpus.fetch.branchRate          0.003303                       # Number of branch fetches per cycle
system.switch_cpus.fetch.icacheStallCycles      1106521                       # Number of cycles fetch is stalled on an Icache miss
system.switch_cpus.fetch.predictedBranches        33298                       # Number of branches that fetch has predicted taken
system.switch_cpus.fetch.rate                0.757200                       # Number of inst fetches per cycle
system.switch_cpus.fetch.rateDist::samples     13797199                       # Number of instructions fetched each cycle (Total)
system.switch_cpus.fetch.rateDist::mean      1.689044                       # Number of instructions fetched each cycle (Total)
system.switch_cpus.fetch.rateDist::stdev     3.103383                       # Number of instructions fetched each cycle (Total)
system.switch_cpus.fetch.rateDist::underflows            0      0.00%      0.00% # Number of instructions fetched each cycle (Total)
system.switch_cpus.fetch.rateDist::0         10313131     74.75%     74.75% # Number of instructions fetched each cycle (Total)
system.switch_cpus.fetch.rateDist::1           104236      0.76%     75.50% # Number of instructions fetched each cycle (Total)
system.switch_cpus.fetch.rateDist::2           216220      1.57%     77.07% # Number of instructions fetched each cycle (Total)
system.switch_cpus.fetch.rateDist::3           170213      1.23%     78.30% # Number of instructions fetched each cycle (Total)
system.switch_cpus.fetch.rateDist::4           183324      1.33%     79.63% # Number of instructions fetched each cycle (Total)
system.switch_cpus.fetch.rateDist::5           146194      1.06%     80.69% # Number of instructions fetched each cycle (Total)
system.switch_cpus.fetch.rateDist::6           221493      1.61%     82.30% # Number of instructions fetched each cycle (Total)
system.switch_cpus.fetch.rateDist::7            75561      0.55%     82.85% # Number of instructions fetched each cycle (Total)
system.switch_cpus.fetch.rateDist::8          2366827     17.15%    100.00% # Number of instructions fetched each cycle (Total)
system.switch_cpus.fetch.rateDist::overflows            0      0.00%    100.00% # Number of instructions fetched each cycle (Total)
system.switch_cpus.fetch.rateDist::min_value            0                       # Number of instructions fetched each cycle (Total)
system.switch_cpus.fetch.rateDist::max_value            8                       # Number of instructions fetched each cycle (Total)
system.switch_cpus.fetch.rateDist::total     13797199                       # Number of instructions fetched each cycle (Total)
system.switch_cpus.fp_regfile_reads          35987991                       # number of floating regfile reads
system.switch_cpus.fp_regfile_writes         19171300                       # number of floating regfile writes
system.switch_cpus.idleCycles                   34146                       # Total number of cycles that the CPU has spent unscheduled due to idling
system.switch_cpus.iew.branchMispredicts          819                       # Number of branch mispredicts detected at execute
system.switch_cpus.iew.exec_branches            36999                       # Number of branches executed
system.switch_cpus.iew.exec_nop                     0                       # number of nop insts executed
system.switch_cpus.iew.exec_rate             1.672842                       # Inst execution rate
system.switch_cpus.iew.exec_refs             10320173                       # number of memory reference insts executed
system.switch_cpus.iew.exec_stores            2366376                       # Number of stores executed
system.switch_cpus.iew.exec_swp                     0                       # number of swp insts executed
system.switch_cpus.iew.iewBlockCycles          322858                       # Number of cycles IEW is blocking
system.switch_cpus.iew.iewDispLoadInsts       7789827                       # Number of dispatched load instructions
system.switch_cpus.iew.iewDispNonSpecInsts            0                       # Number of dispatched non-speculative instructions
system.switch_cpus.iew.iewDispSquashedInsts           12                       # Number of squashed instructions skipped by dispatch
system.switch_cpus.iew.iewDispStoreInsts      2418862                       # Number of dispatched store instructions
system.switch_cpus.iew.iewDispatchedInsts     23042290                       # Number of instructions dispatched to IQ
system.switch_cpus.iew.iewExecLoadInsts       7953797                       # Number of load instructions executed
system.switch_cpus.iew.iewExecSquashedInsts         4653                       # Number of squashed instructions skipped in execute
system.switch_cpus.iew.iewExecutedInsts      23137648                       # Number of executed instructions
system.switch_cpus.iew.iewIQFullEvents           3543                       # Number of times the IQ has become full, causing a stall
system.switch_cpus.iew.iewIdleCycles                0                       # Number of cycles IEW is idle
system.switch_cpus.iew.iewLSQFullEvents       3345166                       # Number of times the LSQ has become full, causing a stall
system.switch_cpus.iew.iewSquashCycles           6068                       # Number of cycles IEW is squashing
system.switch_cpus.iew.iewUnblockCycles       3352742                       # Number of cycles IEW is unblocking
system.switch_cpus.iew.lsq.thread0.blockedLoads            0                       # Number of blocked loads due to partial load-store forwarding
system.switch_cpus.iew.lsq.thread0.cacheBlocked        31140                       # Number of times an access to memory failed due to the cache being blocked
system.switch_cpus.iew.lsq.thread0.forwLoads       612544                       # Number of loads that had data forwarded from stores
system.switch_cpus.iew.lsq.thread0.ignoredResponses           11                       # Number of memory responses ignored because the instruction is squashed
system.switch_cpus.iew.lsq.thread0.invAddrLoads            0                       # Number of loads ignored due to an invalid address
system.switch_cpus.iew.lsq.thread0.invAddrSwpfs            0                       # Number of software prefetches ignored due to an invalid address
system.switch_cpus.iew.lsq.thread0.memOrderViolation          247                       # Number of memory ordering violations
system.switch_cpus.iew.lsq.thread0.rescheduledLoads            0                       # Number of loads that were rescheduled
system.switch_cpus.iew.lsq.thread0.squashedLoads       138674                       # Number of loads squashed
system.switch_cpus.iew.lsq.thread0.squashedStores       167255                       # Number of stores squashed
system.switch_cpus.iew.memOrderViolationEvents          247                       # Number of memory order violations
system.switch_cpus.iew.predictedNotTakenIncorrect          127                       # Number of branches that were predicted not taken incorrectly
system.switch_cpus.iew.predictedTakenIncorrect          692                       # Number of branches that were predicted taken incorrectly
system.switch_cpus.iew.wb_consumers          28729744                       # num instructions consuming a value
system.switch_cpus.iew.wb_count              22917384                       # cumulative count of insts written-back
system.switch_cpus.iew.wb_fanout             0.606999                       # average fanout of values written-back
system.switch_cpus.iew.wb_producers          17438938                       # num instructions producing a value
system.switch_cpus.iew.wb_rate               1.656917                       # insts written-back per cycle
system.switch_cpus.iew.wb_sent               22960426                       # cumulative count of insts sent to commit
system.switch_cpus.int_regfile_reads         21313417                       # number of integer regfile reads
system.switch_cpus.int_regfile_writes         1345070                       # number of integer regfile writes
system.switch_cpus.ipc                       0.722995                       # IPC: Instructions Per Cycle
system.switch_cpus.ipc_total                 0.722995                       # IPC: Total IPC of All Threads
system.switch_cpus.iq.FU_type_0::No_OpClass        41150      0.18%      0.18% # Type of FU issued
system.switch_cpus.iq.FU_type_0::IntAlu       3237355     13.99%     14.17% # Type of FU issued
system.switch_cpus.iq.FU_type_0::IntMult          658      0.00%     14.17% # Type of FU issued
system.switch_cpus.iq.FU_type_0::IntDiv             0      0.00%     14.17% # Type of FU issued
system.switch_cpus.iq.FU_type_0::FloatAdd         2679      0.01%     14.18% # Type of FU issued
system.switch_cpus.iq.FU_type_0::FloatCmp            0      0.00%     14.18% # Type of FU issued
system.switch_cpus.iq.FU_type_0::FloatCvt            0      0.00%     14.18% # Type of FU issued
system.switch_cpus.iq.FU_type_0::FloatMult            0      0.00%     14.18% # Type of FU issued
system.switch_cpus.iq.FU_type_0::FloatMultAcc            0      0.00%     14.18% # Type of FU issued
system.switch_cpus.iq.FU_type_0::FloatDiv            0      0.00%     14.18% # Type of FU issued
system.switch_cpus.iq.FU_type_0::FloatMisc            0      0.00%     14.18% # Type of FU issued
system.switch_cpus.iq.FU_type_0::FloatSqrt            0      0.00%     14.18% # Type of FU issued
system.switch_cpus.iq.FU_type_0::SimdAdd            0      0.00%     14.18% # Type of FU issued
system.switch_cpus.iq.FU_type_0::SimdAddAcc            0      0.00%     14.18% # Type of FU issued
system.switch_cpus.iq.FU_type_0::SimdAlu        47764      0.21%     14.39% # Type of FU issued
system.switch_cpus.iq.FU_type_0::SimdCmp            0      0.00%     14.39% # Type of FU issued
system.switch_cpus.iq.FU_type_0::SimdCvt            0      0.00%     14.39% # Type of FU issued
system.switch_cpus.iq.FU_type_0::SimdMisc            0      0.00%     14.39% # Type of FU issued
system.switch_cpus.iq.FU_type_0::SimdMult            0      0.00%     14.39% # Type of FU issued
system.switch_cpus.iq.FU_type_0::SimdMultAcc            0      0.00%     14.39% # Type of FU issued
system.switch_cpus.iq.FU_type_0::SimdShift            0      0.00%     14.39% # Type of FU issued
system.switch_cpus.iq.FU_type_0::SimdShiftAcc            0      0.00%     14.39% # Type of FU issued
system.switch_cpus.iq.FU_type_0::SimdDiv            0      0.00%     14.39% # Type of FU issued
system.switch_cpus.iq.FU_type_0::SimdSqrt            0      0.00%     14.39% # Type of FU issued
system.switch_cpus.iq.FU_type_0::SimdFloatAdd      5476932     23.67%     38.05% # Type of FU issued
system.switch_cpus.iq.FU_type_0::SimdFloatAlu            0      0.00%     38.05% # Type of FU issued
system.switch_cpus.iq.FU_type_0::SimdFloatCmp            0      0.00%     38.05% # Type of FU issued
system.switch_cpus.iq.FU_type_0::SimdFloatCvt            0      0.00%     38.05% # Type of FU issued
system.switch_cpus.iq.FU_type_0::SimdFloatDiv        11440      0.05%     38.10% # Type of FU issued
system.switch_cpus.iq.FU_type_0::SimdFloatMisc            0      0.00%     38.10% # Type of FU issued
system.switch_cpus.iq.FU_type_0::SimdFloatMult      4002391     17.29%     55.40% # Type of FU issued
system.switch_cpus.iq.FU_type_0::SimdFloatMultAcc            0      0.00%     55.40% # Type of FU issued
system.switch_cpus.iq.FU_type_0::SimdFloatSqrt            0      0.00%     55.40% # Type of FU issued
system.switch_cpus.iq.FU_type_0::SimdReduceAdd            0      0.00%     55.40% # Type of FU issued
system.switch_cpus.iq.FU_type_0::SimdReduceAlu            0      0.00%     55.40% # Type of FU issued
system.switch_cpus.iq.FU_type_0::SimdReduceCmp            0      0.00%     55.40% # Type of FU issued
system.switch_cpus.iq.FU_type_0::SimdFloatReduceAdd            0      0.00%     55.40% # Type of FU issued
system.switch_cpus.iq.FU_type_0::SimdFloatReduceCmp            0      0.00%     55.40% # Type of FU issued
system.switch_cpus.iq.FU_type_0::SimdAes            0      0.00%     55.40% # Type of FU issued
system.switch_cpus.iq.FU_type_0::SimdAesMix            0      0.00%     55.40% # Type of FU issued
system.switch_cpus.iq.FU_type_0::SimdSha1Hash            0      0.00%     55.40% # Type of FU issued
system.switch_cpus.iq.FU_type_0::SimdSha1Hash2            0      0.00%     55.40% # Type of FU issued
system.switch_cpus.iq.FU_type_0::SimdSha256Hash            0      0.00%     55.40% # Type of FU issued
system.switch_cpus.iq.FU_type_0::SimdSha256Hash2            0      0.00%     55.40% # Type of FU issued
system.switch_cpus.iq.FU_type_0::SimdShaSigma2            0      0.00%     55.40% # Type of FU issued
system.switch_cpus.iq.FU_type_0::SimdShaSigma3            0      0.00%     55.40% # Type of FU issued
system.switch_cpus.iq.FU_type_0::SimdPredAlu            0      0.00%     55.40% # Type of FU issued
system.switch_cpus.iq.FU_type_0::MemRead       765734      3.31%     58.71% # Type of FU issued
system.switch_cpus.iq.FU_type_0::MemWrite        94677      0.41%     59.12% # Type of FU issued
system.switch_cpus.iq.FU_type_0::FloatMemRead      7189660     31.07%     90.18% # Type of FU issued
system.switch_cpus.iq.FU_type_0::FloatMemWrite      2271867      9.82%    100.00% # Type of FU issued
system.switch_cpus.iq.FU_type_0::IprAccess            0      0.00%    100.00% # Type of FU issued
system.switch_cpus.iq.FU_type_0::InstPrefetch            0      0.00%    100.00% # Type of FU issued
system.switch_cpus.iq.FU_type_0::total       23142307                       # Type of FU issued
system.switch_cpus.iq.fp_alu_accesses        22506052                       # Number of floating point alu accesses
system.switch_cpus.iq.fp_inst_queue_reads     44083472                       # Number of floating instruction queue reads
system.switch_cpus.iq.fp_inst_queue_wakeup_accesses     21441342                       # Number of floating instruction queue wakeup accesses
system.switch_cpus.iq.fp_inst_queue_writes     21671026                       # Number of floating instruction queue writes
system.switch_cpus.iq.fu_busy_cnt             1028790                       # FU busy when requested
system.switch_cpus.iq.fu_busy_rate           0.044455                       # FU busy rate (busy events/executed inst)
system.switch_cpus.iq.fu_full::No_OpClass            0      0.00%      0.00% # attempts to use FU when none available
system.switch_cpus.iq.fu_full::IntAlu             756      0.07%      0.07% # attempts to use FU when none available
system.switch_cpus.iq.fu_full::IntMult              0      0.00%      0.07% # attempts to use FU when none available
system.switch_cpus.iq.fu_full::IntDiv               0      0.00%      0.07% # attempts to use FU when none available
system.switch_cpus.iq.fu_full::FloatAdd             0      0.00%      0.07% # attempts to use FU when none available
system.switch_cpus.iq.fu_full::FloatCmp             0      0.00%      0.07% # attempts to use FU when none available
system.switch_cpus.iq.fu_full::FloatCvt             0      0.00%      0.07% # attempts to use FU when none available
system.switch_cpus.iq.fu_full::FloatMult            0      0.00%      0.07% # attempts to use FU when none available
system.switch_cpus.iq.fu_full::FloatMultAcc            0      0.00%      0.07% # attempts to use FU when none available
system.switch_cpus.iq.fu_full::FloatDiv             0      0.00%      0.07% # attempts to use FU when none available
system.switch_cpus.iq.fu_full::FloatMisc            0      0.00%      0.07% # attempts to use FU when none available
system.switch_cpus.iq.fu_full::FloatSqrt            0      0.00%      0.07% # attempts to use FU when none available
system.switch_cpus.iq.fu_full::SimdAdd              0      0.00%      0.07% # attempts to use FU when none available
system.switch_cpus.iq.fu_full::SimdAddAcc            0      0.00%      0.07% # attempts to use FU when none available
system.switch_cpus.iq.fu_full::SimdAlu              0      0.00%      0.07% # attempts to use FU when none available
system.switch_cpus.iq.fu_full::SimdCmp              0      0.00%      0.07% # attempts to use FU when none available
system.switch_cpus.iq.fu_full::SimdCvt              0      0.00%      0.07% # attempts to use FU when none available
system.switch_cpus.iq.fu_full::SimdMisc             0      0.00%      0.07% # attempts to use FU when none available
system.switch_cpus.iq.fu_full::SimdMult             0      0.00%      0.07% # attempts to use FU when none available
system.switch_cpus.iq.fu_full::SimdMultAcc            0      0.00%      0.07% # attempts to use FU when none available
system.switch_cpus.iq.fu_full::SimdShift            0      0.00%      0.07% # attempts to use FU when none available
system.switch_cpus.iq.fu_full::SimdShiftAcc            0      0.00%      0.07% # attempts to use FU when none available
system.switch_cpus.iq.fu_full::SimdDiv              0      0.00%      0.07% # attempts to use FU when none available
system.switch_cpus.iq.fu_full::SimdSqrt             0      0.00%      0.07% # attempts to use FU when none available
system.switch_cpus.iq.fu_full::SimdFloatAdd       119768     11.64%     11.72% # attempts to use FU when none available
system.switch_cpus.iq.fu_full::SimdFloatAlu            0      0.00%     11.72% # attempts to use FU when none available
system.switch_cpus.iq.fu_full::SimdFloatCmp            0      0.00%     11.72% # attempts to use FU when none available
system.switch_cpus.iq.fu_full::SimdFloatCvt            0      0.00%     11.72% # attempts to use FU when none available
system.switch_cpus.iq.fu_full::SimdFloatDiv            0      0.00%     11.72% # attempts to use FU when none available
system.switch_cpus.iq.fu_full::SimdFloatMisc            0      0.00%     11.72% # attempts to use FU when none available
system.switch_cpus.iq.fu_full::SimdFloatMult       268116     26.06%     37.78% # attempts to use FU when none available
system.switch_cpus.iq.fu_full::SimdFloatMultAcc            0      0.00%     37.78% # attempts to use FU when none available
system.switch_cpus.iq.fu_full::SimdFloatSqrt            0      0.00%     37.78% # attempts to use FU when none available
system.switch_cpus.iq.fu_full::SimdReduceAdd            0      0.00%     37.78% # attempts to use FU when none available
system.switch_cpus.iq.fu_full::SimdReduceAlu            0      0.00%     37.78% # attempts to use FU when none available
system.switch_cpus.iq.fu_full::SimdReduceCmp            0      0.00%     37.78% # attempts to use FU when none available
system.switch_cpus.iq.fu_full::SimdFloatReduceAdd            0      0.00%     37.78% # attempts to use FU when none available
system.switch_cpus.iq.fu_full::SimdFloatReduceCmp            0      0.00%     37.78% # attempts to use FU when none available
system.switch_cpus.iq.fu_full::SimdAes              0      0.00%     37.78% # attempts to use FU when none available
system.switch_cpus.iq.fu_full::SimdAesMix            0      0.00%     37.78% # attempts to use FU when none available
system.switch_cpus.iq.fu_full::SimdSha1Hash            0      0.00%     37.78% # attempts to use FU when none available
system.switch_cpus.iq.fu_full::SimdSha1Hash2            0      0.00%     37.78% # attempts to use FU when none available
system.switch_cpus.iq.fu_full::SimdSha256Hash            0      0.00%     37.78% # attempts to use FU when none available
system.switch_cpus.iq.fu_full::SimdSha256Hash2            0      0.00%     37.78% # attempts to use FU when none available
system.switch_cpus.iq.fu_full::SimdShaSigma2            0      0.00%     37.78% # attempts to use FU when none available
system.switch_cpus.iq.fu_full::SimdShaSigma3            0      0.00%     37.78% # attempts to use FU when none available
system.switch_cpus.iq.fu_full::SimdPredAlu            0      0.00%     37.78% # attempts to use FU when none available
system.switch_cpus.iq.fu_full::MemRead          87559      8.51%     46.29% # attempts to use FU when none available
system.switch_cpus.iq.fu_full::MemWrite         11379      1.11%     47.39% # attempts to use FU when none available
system.switch_cpus.iq.fu_full::FloatMemRead       489345     47.57%     94.96% # attempts to use FU when none available
system.switch_cpus.iq.fu_full::FloatMemWrite        51867      5.04%    100.00% # attempts to use FU when none available
system.switch_cpus.iq.fu_full::IprAccess            0      0.00%    100.00% # attempts to use FU when none available
system.switch_cpus.iq.fu_full::InstPrefetch            0      0.00%    100.00% # attempts to use FU when none available
system.switch_cpus.iq.int_alu_accesses        1623895                       # Number of integer alu accesses
system.switch_cpus.iq.int_inst_queue_reads     17027722                       # Number of integer instruction queue reads
system.switch_cpus.iq.int_inst_queue_wakeup_accesses      1476042                       # Number of integer instruction queue wakeup accesses
system.switch_cpus.iq.int_inst_queue_writes      1936418                       # Number of integer instruction queue writes
system.switch_cpus.iq.iqInstsAdded           23038445                       # Number of instructions added to the IQ (excludes non-spec)
system.switch_cpus.iq.iqInstsIssued          23142307                       # Number of instructions issued
system.switch_cpus.iq.iqNonSpecInstsAdded         3845                       # Number of non-speculative instructions added to the IQ
system.switch_cpus.iq.iqSquashedInstsExamined       564907                       # Number of squashed instructions iterated over during squash; mainly for profiling
system.switch_cpus.iq.iqSquashedInstsIssued          597                       # Number of squashed instructions issued
system.switch_cpus.iq.iqSquashedNonSpecRemoved         3525                       # Number of squashed non-spec instructions that were removed
system.switch_cpus.iq.iqSquashedOperandsExamined       282693                       # Number of squashed operands that are examined and possibly removed from graph
system.switch_cpus.iq.issued_per_cycle::samples     13797199                       # Number of insts issued each cycle
system.switch_cpus.iq.issued_per_cycle::mean     1.677319                       # Number of insts issued each cycle
system.switch_cpus.iq.issued_per_cycle::stdev     2.489143                       # Number of insts issued each cycle
system.switch_cpus.iq.issued_per_cycle::underflows            0      0.00%      0.00% # Number of insts issued each cycle
system.switch_cpus.iq.issued_per_cycle::0      8373863     60.69%     60.69% # Number of insts issued each cycle
system.switch_cpus.iq.issued_per_cycle::1       701244      5.08%     65.77% # Number of insts issued each cycle
system.switch_cpus.iq.issued_per_cycle::2       740840      5.37%     71.14% # Number of insts issued each cycle
system.switch_cpus.iq.issued_per_cycle::3       626826      4.54%     75.69% # Number of insts issued each cycle
system.switch_cpus.iq.issued_per_cycle::4       907451      6.58%     82.26% # Number of insts issued each cycle
system.switch_cpus.iq.issued_per_cycle::5       704486      5.11%     87.37% # Number of insts issued each cycle
system.switch_cpus.iq.issued_per_cycle::6       772045      5.60%     92.97% # Number of insts issued each cycle
system.switch_cpus.iq.issued_per_cycle::7       469151      3.40%     96.37% # Number of insts issued each cycle
system.switch_cpus.iq.issued_per_cycle::8       501293      3.63%    100.00% # Number of insts issued each cycle
system.switch_cpus.iq.issued_per_cycle::overflows            0      0.00%    100.00% # Number of insts issued each cycle
system.switch_cpus.iq.issued_per_cycle::min_value            0                       # Number of insts issued each cycle
system.switch_cpus.iq.issued_per_cycle::max_value            8                       # Number of insts issued each cycle
system.switch_cpus.iq.issued_per_cycle::total     13797199                       # Number of insts issued each cycle
system.switch_cpus.iq.rate                   1.673178                       # Inst issue rate
system.switch_cpus.iq.vec_alu_accesses              0                       # Number of vector alu accesses
system.switch_cpus.iq.vec_inst_queue_reads            0                       # Number of vector instruction queue reads
system.switch_cpus.iq.vec_inst_queue_wakeup_accesses            0                       # Number of vector instruction queue wakeup accesses
system.switch_cpus.iq.vec_inst_queue_writes            0                       # Number of vector instruction queue writes
system.switch_cpus.itb.rdAccesses                   0                       # TLB accesses on read requests
system.switch_cpus.itb.rdMisses                     0                       # TLB misses on read requests
system.switch_cpus.itb.wrAccesses             1084027                       # TLB accesses on write requests
system.switch_cpus.itb.wrMisses                    10                       # TLB misses on write requests
system.switch_cpus.memDep0.conflictingLoads        22170                       # Number of conflicting loads.
system.switch_cpus.memDep0.conflictingStores        94420                       # Number of conflicting stores.
system.switch_cpus.memDep0.insertedLoads      7789827                       # Number of loads inserted to the mem dependence unit.
system.switch_cpus.memDep0.insertedStores      2418862                       # Number of stores inserted to the mem dependence unit.
system.switch_cpus.misc_regfile_reads        10627910                       # number of misc regfile reads
system.switch_cpus.misc_regfile_writes              1                       # number of misc regfile writes
system.switch_cpus.numCycles                 13831345                       # number of cpu cycles simulated
system.switch_cpus.numWorkItemsCompleted            0                       # number of work items this cpu completed
system.switch_cpus.numWorkItemsStarted              0                       # number of work items this cpu started
system.switch_cpus.rename.BlockCycles         3736249                       # Number of cycles rename is blocking
system.switch_cpus.rename.CommittedMaps      20390922                       # Number of HB maps that are committed
system.switch_cpus.rename.IQFullEvents          91072                       # Number of times rename has blocked due to IQ full
system.switch_cpus.rename.IdleCycles          1019231                       # Number of cycles rename is idle
system.switch_cpus.rename.LQFullEvents        1621067                       # Number of times rename has blocked due to LQ full
system.switch_cpus.rename.ROBFullEvents         34197                       # Number of times rename has blocked due to ROB full
system.switch_cpus.rename.RenameLookups      67937645                       # Number of register rename lookups that rename has made
system.switch_cpus.rename.RenamedInsts       23064494                       # Number of instructions processed by rename
system.switch_cpus.rename.RenamedOperands     20906055                       # Number of destination operands rename has renamed
system.switch_cpus.rename.RunCycles           2782464                       # Number of cycles rename is running
system.switch_cpus.rename.SQFullEvents        4396581                       # Number of times rename has blocked due to SQ full
system.switch_cpus.rename.SquashCycles           6068                       # Number of cycles rename is squashing
system.switch_cpus.rename.UnblockCycles       6252845                       # Number of cycles rename is unblocking
system.switch_cpus.rename.UndoneMaps           515077                       # Number of HB maps that are undone due to squashing
system.switch_cpus.rename.fp_rename_lookups     36040488                       # Number of floating rename lookups
system.switch_cpus.rename.int_rename_lookups     21167906                       # Number of integer rename lookups
system.switch_cpus.rename.serializeStallCycles            0                       # count of cycles rename stalled for serializing inst
system.switch_cpus.rename.serializingInsts            0                       # count of serializing insts renamed
system.switch_cpus.rename.skidInsts           4024192                       # count of insts added to the skid buffer
system.switch_cpus.rename.tempSerializingInsts            0                       # count of temporary serializing insts renamed
system.switch_cpus.rob.rob_reads             35092629                       # The number of ROB reads
system.switch_cpus.rob.rob_writes            45954060                       # The number of ROB writes
system.switch_cpus.timesIdled                     372                       # Number of times that the entire CPU went into an idle state and unscheduled itself
system.tol2bus.snoop_filter.hit_multi_requests            0                       # Number of requests hitting in the snoop filter with multiple (>1) holders of the requested data.
system.tol2bus.snoop_filter.hit_multi_snoops            0                       # Number of snoops hitting in the snoop filter with multiple (>1) holders of the requested data.
system.tol2bus.snoop_filter.hit_single_requests       110723                       # Number of requests hitting in the snoop filter with a single holder of the requested data.
system.tol2bus.snoop_filter.hit_single_snoops         5042                       # Number of snoops hitting in the snoop filter with a single holder of the requested data.
system.tol2bus.snoop_filter.tot_requests       222751                       # Total number of requests made to the snoop filter.
system.tol2bus.snoop_filter.tot_snoops           5042                       # Total number of snoops made to the snoop filter.
system.membus.pwrStateResidencyTicks::UNDEFINED 560740943133000                       # Cumulative time (in ticks) in various power states
system.membus.trans_dist::ReadResp              53105                       # Transaction distribution
system.membus.trans_dist::WritebackDirty        22984                       # Transaction distribution
system.membus.trans_dist::CleanEvict            44035                       # Transaction distribution
system.membus.trans_dist::ReadExReq             22394                       # Transaction distribution
system.membus.trans_dist::ReadExResp            22394                       # Transaction distribution
system.membus.trans_dist::ReadSharedReq         53105                       # Transaction distribution
system.membus.pkt_count_system.l2.mem_side::system.mem_ctrls.port       218017                       # Packet count per connected master and slave (bytes)
system.membus.pkt_count_system.l2.mem_side::total       218017                       # Packet count per connected master and slave (bytes)
system.membus.pkt_count::total                 218017                       # Packet count per connected master and slave (bytes)
system.membus.pkt_size_system.l2.mem_side::system.mem_ctrls.port      6302912                       # Cumulative packet size per connected master and slave (bytes)
system.membus.pkt_size_system.l2.mem_side::total      6302912                       # Cumulative packet size per connected master and slave (bytes)
system.membus.pkt_size::total                 6302912                       # Cumulative packet size per connected master and slave (bytes)
system.membus.snoops                                0                       # Total snoops (count)
system.membus.snoopTraffic                          0                       # Total snoop traffic (bytes)
system.membus.snoop_fanout::samples             75499                       # Request fanout histogram
system.membus.snoop_fanout::mean                    0                       # Request fanout histogram
system.membus.snoop_fanout::stdev                   0                       # Request fanout histogram
system.membus.snoop_fanout::underflows              0      0.00%      0.00% # Request fanout histogram
system.membus.snoop_fanout::0                   75499    100.00%    100.00% # Request fanout histogram
system.membus.snoop_fanout::1                       0      0.00%    100.00% # Request fanout histogram
system.membus.snoop_fanout::overflows               0      0.00%    100.00% # Request fanout histogram
system.membus.snoop_fanout::min_value               0                       # Request fanout histogram
system.membus.snoop_fanout::max_value               0                       # Request fanout histogram
system.membus.snoop_fanout::total               75499                       # Request fanout histogram
system.membus.reqLayer2.occupancy           248316000                       # Layer occupancy (ticks)
system.membus.reqLayer2.utilization               3.6                       # Layer utilization (%)
system.membus.respLayer1.occupancy          417745500                       # Layer occupancy (ticks)
system.membus.respLayer1.utilization              6.0                       # Layer utilization (%)
system.switch_cpus.pwrStateResidencyTicks::OFF   6915683000                       # Cumulative time (in ticks) in various power states
system.switch_cpus.dtb.walker.pwrStateResidencyTicks::UNDEFINED 560740943133000                       # Cumulative time (in ticks) in various power states
system.switch_cpus.itb.walker.pwrStateResidencyTicks::UNDEFINED 560740943133000                       # Cumulative time (in ticks) in various power states
system.tol2bus.pwrStateResidencyTicks::UNDEFINED 560740943133000                       # Cumulative time (in ticks) in various power states
system.tol2bus.trans_dist::ReadResp             81118                       # Transaction distribution
system.tol2bus.trans_dist::WritebackDirty        73770                       # Transaction distribution
system.tol2bus.trans_dist::WritebackClean          116                       # Transaction distribution
system.tol2bus.trans_dist::CleanEvict          105703                       # Transaction distribution
system.tol2bus.trans_dist::ReadExReq            30910                       # Transaction distribution
system.tol2bus.trans_dist::ReadExResp           30910                       # Transaction distribution
system.tol2bus.trans_dist::ReadCleanReq           397                       # Transaction distribution
system.tol2bus.trans_dist::ReadSharedReq        80721                       # Transaction distribution
system.tol2bus.pkt_count_system.cpu.icache.mem_side::system.l2.cpu_side          910                       # Packet count per connected master and slave (bytes)
system.tol2bus.pkt_count_system.cpu.dcache.mem_side::system.l2.cpu_side       333869                       # Packet count per connected master and slave (bytes)
system.tol2bus.pkt_count::total                334779                       # Packet count per connected master and slave (bytes)
system.tol2bus.pkt_size_system.cpu.icache.mem_side::system.l2.cpu_side        32832                       # Cumulative packet size per connected master and slave (bytes)
system.tol2bus.pkt_size_system.cpu.dcache.mem_side::system.l2.cpu_side     10394688                       # Cumulative packet size per connected master and slave (bytes)
system.tol2bus.pkt_size::total               10427520                       # Cumulative packet size per connected master and slave (bytes)
system.tol2bus.snoops                           68866                       # Total snoops (count)
system.tol2bus.snoopTraffic                   1470976                       # Total snoop traffic (bytes)
system.tol2bus.snoop_fanout::samples           180894                       # Request fanout histogram
system.tol2bus.snoop_fanout::mean            0.027873                       # Request fanout histogram
system.tol2bus.snoop_fanout::stdev           0.164608                       # Request fanout histogram
system.tol2bus.snoop_fanout::underflows             0      0.00%      0.00% # Request fanout histogram
system.tol2bus.snoop_fanout::0                 175852     97.21%     97.21% # Request fanout histogram
system.tol2bus.snoop_fanout::1                   5042      2.79%    100.00% # Request fanout histogram
system.tol2bus.snoop_fanout::2                      0      0.00%    100.00% # Request fanout histogram
system.tol2bus.snoop_fanout::3                      0      0.00%    100.00% # Request fanout histogram
system.tol2bus.snoop_fanout::4                      0      0.00%    100.00% # Request fanout histogram
system.tol2bus.snoop_fanout::overflows              0      0.00%    100.00% # Request fanout histogram
system.tol2bus.snoop_fanout::min_value              0                       # Request fanout histogram
system.tol2bus.snoop_fanout::max_value              1                       # Request fanout histogram
system.tol2bus.snoop_fanout::total             180894                       # Request fanout histogram
system.tol2bus.reqLayer0.occupancy          162275000                       # Layer occupancy (ticks)
system.tol2bus.reqLayer0.utilization              2.3                       # Layer utilization (%)
system.tol2bus.respLayer1.occupancy         167442000                       # Layer occupancy (ticks)
system.tol2bus.respLayer1.utilization             2.4                       # Layer utilization (%)
system.tol2bus.respLayer0.occupancy            592500                       # Layer occupancy (ticks)
system.tol2bus.respLayer0.utilization             0.0                       # Layer utilization (%)
system.voltage_domain.voltage                       1                       # Voltage in Volts
system.clk_domain.clock                          1000                       # Clock period in ticks
system.l2.pwrStateResidencyTicks::UNDEFINED 560740943133000                       # Cumulative time (in ticks) in various power states
system.l2.demand_hits::.switch_cpus.inst           49                       # number of demand (read+write) hits
system.l2.demand_hits::.switch_cpus.data        36480                       # number of demand (read+write) hits
system.l2.demand_hits::total                    36529                       # number of demand (read+write) hits
system.l2.overall_hits::.switch_cpus.inst           49                       # number of overall hits
system.l2.overall_hits::.switch_cpus.data        36480                       # number of overall hits
system.l2.overall_hits::total                   36529                       # number of overall hits
system.l2.demand_misses::.cpu.inst                  2                       # number of demand (read+write) misses
system.l2.demand_misses::.cpu.data                  3                       # number of demand (read+write) misses
system.l2.demand_misses::.switch_cpus.inst          346                       # number of demand (read+write) misses
system.l2.demand_misses::.switch_cpus.data        75148                       # number of demand (read+write) misses
system.l2.demand_misses::total                  75499                       # number of demand (read+write) misses
system.l2.overall_misses::.cpu.inst                 2                       # number of overall misses
system.l2.overall_misses::.cpu.data                 3                       # number of overall misses
system.l2.overall_misses::.switch_cpus.inst          346                       # number of overall misses
system.l2.overall_misses::.switch_cpus.data        75148                       # number of overall misses
system.l2.overall_misses::total                 75499                       # number of overall misses
system.l2.demand_miss_latency::.switch_cpus.inst     26714500                       # number of demand (read+write) miss cycles
system.l2.demand_miss_latency::.switch_cpus.data   7662261000                       # number of demand (read+write) miss cycles
system.l2.demand_miss_latency::total       7688975500                       # number of demand (read+write) miss cycles
system.l2.overall_miss_latency::.switch_cpus.inst     26714500                       # number of overall miss cycles
system.l2.overall_miss_latency::.switch_cpus.data   7662261000                       # number of overall miss cycles
system.l2.overall_miss_latency::total      7688975500                       # number of overall miss cycles
system.l2.demand_accesses::.cpu.inst                2                       # number of demand (read+write) accesses
system.l2.demand_accesses::.cpu.data                3                       # number of demand (read+write) accesses
system.l2.demand_accesses::.switch_cpus.inst          395                       # number of demand (read+write) accesses
system.l2.demand_accesses::.switch_cpus.data       111628                       # number of demand (read+write) accesses
system.l2.demand_accesses::total               112028                       # number of demand (read+write) accesses
system.l2.overall_accesses::.cpu.inst               2                       # number of overall (read+write) accesses
system.l2.overall_accesses::.cpu.data               3                       # number of overall (read+write) accesses
system.l2.overall_accesses::.switch_cpus.inst          395                       # number of overall (read+write) accesses
system.l2.overall_accesses::.switch_cpus.data       111628                       # number of overall (read+write) accesses
system.l2.overall_accesses::total              112028                       # number of overall (read+write) accesses
system.l2.demand_miss_rate::.cpu.inst               1                       # miss rate for demand accesses
system.l2.demand_miss_rate::.cpu.data               1                       # miss rate for demand accesses
system.l2.demand_miss_rate::.switch_cpus.inst     0.875949                       # miss rate for demand accesses
system.l2.demand_miss_rate::.switch_cpus.data     0.673200                       # miss rate for demand accesses
system.l2.demand_miss_rate::total            0.673930                       # miss rate for demand accesses
system.l2.overall_miss_rate::.cpu.inst              1                       # miss rate for overall accesses
system.l2.overall_miss_rate::.cpu.data              1                       # miss rate for overall accesses
system.l2.overall_miss_rate::.switch_cpus.inst     0.875949                       # miss rate for overall accesses
system.l2.overall_miss_rate::.switch_cpus.data     0.673200                       # miss rate for overall accesses
system.l2.overall_miss_rate::total           0.673930                       # miss rate for overall accesses
system.l2.demand_avg_miss_latency::.switch_cpus.inst 77209.537572                       # average overall miss latency
system.l2.demand_avg_miss_latency::.switch_cpus.data 101962.274445                       # average overall miss latency
system.l2.demand_avg_miss_latency::total 101842.084001                       # average overall miss latency
system.l2.overall_avg_miss_latency::.switch_cpus.inst 77209.537572                       # average overall miss latency
system.l2.overall_avg_miss_latency::.switch_cpus.data 101962.274445                       # average overall miss latency
system.l2.overall_avg_miss_latency::total 101842.084001                       # average overall miss latency
system.l2.blocked_cycles::no_mshrs                  0                       # number of cycles access was blocked
system.l2.blocked_cycles::no_targets                0                       # number of cycles access was blocked
system.l2.blocked::no_mshrs                         0                       # number of cycles access was blocked
system.l2.blocked::no_targets                       0                       # number of cycles access was blocked
system.l2.avg_blocked_cycles::no_mshrs            nan                       # average number of cycles each access was blocked
system.l2.avg_blocked_cycles::no_targets          nan                       # average number of cycles each access was blocked
system.l2.writebacks::.writebacks               22984                       # number of writebacks
system.l2.writebacks::total                     22984                       # number of writebacks
system.l2.demand_mshr_misses::.switch_cpus.inst          346                       # number of demand (read+write) MSHR misses
system.l2.demand_mshr_misses::.switch_cpus.data        75148                       # number of demand (read+write) MSHR misses
system.l2.demand_mshr_misses::total             75494                       # number of demand (read+write) MSHR misses
system.l2.overall_mshr_misses::.switch_cpus.inst          346                       # number of overall MSHR misses
system.l2.overall_mshr_misses::.switch_cpus.data        75148                       # number of overall MSHR misses
system.l2.overall_mshr_misses::total            75494                       # number of overall MSHR misses
system.l2.demand_mshr_miss_latency::.switch_cpus.inst     23254500                       # number of demand (read+write) MSHR miss cycles
system.l2.demand_mshr_miss_latency::.switch_cpus.data   6910781000                       # number of demand (read+write) MSHR miss cycles
system.l2.demand_mshr_miss_latency::total   6934035500                       # number of demand (read+write) MSHR miss cycles
system.l2.overall_mshr_miss_latency::.switch_cpus.inst     23254500                       # number of overall MSHR miss cycles
system.l2.overall_mshr_miss_latency::.switch_cpus.data   6910781000                       # number of overall MSHR miss cycles
system.l2.overall_mshr_miss_latency::total   6934035500                       # number of overall MSHR miss cycles
system.l2.demand_mshr_miss_rate::.switch_cpus.inst     0.875949                       # mshr miss rate for demand accesses
system.l2.demand_mshr_miss_rate::.switch_cpus.data     0.673200                       # mshr miss rate for demand accesses
system.l2.demand_mshr_miss_rate::total       0.673885                       # mshr miss rate for demand accesses
system.l2.overall_mshr_miss_rate::.switch_cpus.inst     0.875949                       # mshr miss rate for overall accesses
system.l2.overall_mshr_miss_rate::.switch_cpus.data     0.673200                       # mshr miss rate for overall accesses
system.l2.overall_mshr_miss_rate::total      0.673885                       # mshr miss rate for overall accesses
system.l2.demand_avg_mshr_miss_latency::.switch_cpus.inst 67209.537572                       # average overall mshr miss latency
system.l2.demand_avg_mshr_miss_latency::.switch_cpus.data 91962.274445                       # average overall mshr miss latency
system.l2.demand_avg_mshr_miss_latency::total 91848.829046                       # average overall mshr miss latency
system.l2.overall_avg_mshr_miss_latency::.switch_cpus.inst 67209.537572                       # average overall mshr miss latency
system.l2.overall_avg_mshr_miss_latency::.switch_cpus.data 91962.274445                       # average overall mshr miss latency
system.l2.overall_avg_mshr_miss_latency::total 91848.829046                       # average overall mshr miss latency
system.l2.replacements                          68866                       # number of replacements
system.l2.WritebackDirty_hits::.writebacks        50786                       # number of WritebackDirty hits
system.l2.WritebackDirty_hits::total            50786                       # number of WritebackDirty hits
system.l2.WritebackDirty_accesses::.writebacks        50786                       # number of WritebackDirty accesses(hits+misses)
system.l2.WritebackDirty_accesses::total        50786                       # number of WritebackDirty accesses(hits+misses)
system.l2.WritebackClean_hits::.writebacks          116                       # number of WritebackClean hits
system.l2.WritebackClean_hits::total              116                       # number of WritebackClean hits
system.l2.WritebackClean_accesses::.writebacks          116                       # number of WritebackClean accesses(hits+misses)
system.l2.WritebackClean_accesses::total          116                       # number of WritebackClean accesses(hits+misses)
system.l2.CleanEvict_mshr_misses::.writebacks         3195                       # number of CleanEvict MSHR misses
system.l2.CleanEvict_mshr_misses::total          3195                       # number of CleanEvict MSHR misses
system.l2.CleanEvict_mshr_miss_rate::.writebacks          inf                       # mshr miss rate for CleanEvict accesses
system.l2.CleanEvict_mshr_miss_rate::total          inf                       # mshr miss rate for CleanEvict accesses
system.l2.ReadExReq_hits::.switch_cpus.data         8516                       # number of ReadExReq hits
system.l2.ReadExReq_hits::total                  8516                       # number of ReadExReq hits
system.l2.ReadExReq_misses::.cpu.data               2                       # number of ReadExReq misses
system.l2.ReadExReq_misses::.switch_cpus.data        22392                       # number of ReadExReq misses
system.l2.ReadExReq_misses::total               22394                       # number of ReadExReq misses
system.l2.ReadExReq_miss_latency::.switch_cpus.data   2209168000                       # number of ReadExReq miss cycles
system.l2.ReadExReq_miss_latency::total    2209168000                       # number of ReadExReq miss cycles
system.l2.ReadExReq_accesses::.cpu.data             2                       # number of ReadExReq accesses(hits+misses)
system.l2.ReadExReq_accesses::.switch_cpus.data        30908                       # number of ReadExReq accesses(hits+misses)
system.l2.ReadExReq_accesses::total             30910                       # number of ReadExReq accesses(hits+misses)
system.l2.ReadExReq_miss_rate::.cpu.data            1                       # miss rate for ReadExReq accesses
system.l2.ReadExReq_miss_rate::.switch_cpus.data     0.724473                       # miss rate for ReadExReq accesses
system.l2.ReadExReq_miss_rate::total         0.724490                       # miss rate for ReadExReq accesses
system.l2.ReadExReq_avg_miss_latency::.switch_cpus.data 98658.806717                       # average ReadExReq miss latency
system.l2.ReadExReq_avg_miss_latency::total 98649.995535                       # average ReadExReq miss latency
system.l2.ReadExReq_mshr_misses::.switch_cpus.data        22392                       # number of ReadExReq MSHR misses
system.l2.ReadExReq_mshr_misses::total          22392                       # number of ReadExReq MSHR misses
system.l2.ReadExReq_mshr_miss_latency::.switch_cpus.data   1985248000                       # number of ReadExReq MSHR miss cycles
system.l2.ReadExReq_mshr_miss_latency::total   1985248000                       # number of ReadExReq MSHR miss cycles
system.l2.ReadExReq_mshr_miss_rate::.switch_cpus.data     0.724473                       # mshr miss rate for ReadExReq accesses
system.l2.ReadExReq_mshr_miss_rate::total     0.724426                       # mshr miss rate for ReadExReq accesses
system.l2.ReadExReq_avg_mshr_miss_latency::.switch_cpus.data 88658.806717                       # average ReadExReq mshr miss latency
system.l2.ReadExReq_avg_mshr_miss_latency::total 88658.806717                       # average ReadExReq mshr miss latency
system.l2.ReadCleanReq_hits::.switch_cpus.inst           49                       # number of ReadCleanReq hits
system.l2.ReadCleanReq_hits::total                 49                       # number of ReadCleanReq hits
system.l2.ReadCleanReq_misses::.cpu.inst            2                       # number of ReadCleanReq misses
system.l2.ReadCleanReq_misses::.switch_cpus.inst          346                       # number of ReadCleanReq misses
system.l2.ReadCleanReq_misses::total              348                       # number of ReadCleanReq misses
system.l2.ReadCleanReq_miss_latency::.switch_cpus.inst     26714500                       # number of ReadCleanReq miss cycles
system.l2.ReadCleanReq_miss_latency::total     26714500                       # number of ReadCleanReq miss cycles
system.l2.ReadCleanReq_accesses::.cpu.inst            2                       # number of ReadCleanReq accesses(hits+misses)
system.l2.ReadCleanReq_accesses::.switch_cpus.inst          395                       # number of ReadCleanReq accesses(hits+misses)
system.l2.ReadCleanReq_accesses::total            397                       # number of ReadCleanReq accesses(hits+misses)
system.l2.ReadCleanReq_miss_rate::.cpu.inst            1                       # miss rate for ReadCleanReq accesses
system.l2.ReadCleanReq_miss_rate::.switch_cpus.inst     0.875949                       # miss rate for ReadCleanReq accesses
system.l2.ReadCleanReq_miss_rate::total      0.876574                       # miss rate for ReadCleanReq accesses
system.l2.ReadCleanReq_avg_miss_latency::.switch_cpus.inst 77209.537572                       # average ReadCleanReq miss latency
system.l2.ReadCleanReq_avg_miss_latency::total 76765.804598                       # average ReadCleanReq miss latency
[...]
system.cpu.dtb_walker_cache.pwrStateResidencyTicks::UNDEFINED 560761653723000                       # Cumulative time (in ticks) in various power states
system.cpu.dtb_walker_cache.blocked_cycles::no_mshrs            0                       # number of cycles access was blocked
system.cpu.dtb_walker_cache.blocked_cycles::no_targets            0                       # number of cycles access was blocked
system.cpu.dtb_walker_cache.blocked::no_mshrs            0                       # number of cycles access was blocked
system.cpu.dtb_walker_cache.blocked::no_targets            0                       # number of cycles access was blocked
system.cpu.dtb_walker_cache.avg_blocked_cycles::no_mshrs          nan                       # average number of cycles each access was blocked
system.cpu.dtb_walker_cache.avg_blocked_cycles::no_targets          nan                       # average number of cycles each access was blocked
system.cpu.dtb_walker_cache.replacements            0                       # number of replacements
system.cpu.dtb_walker_cache.tags.pwrStateResidencyTicks::UNDEFINED 560761653723000                       # Cumulative time (in ticks) in various power states
system.cpu.dtb_walker_cache.tags.tagsinuse            0                       # Cycle average of tags in use
system.cpu.dtb_walker_cache.tags.total_refs            0                       # Total number of references to valid blocks.
system.cpu.dtb_walker_cache.tags.sampled_refs            0                       # Sample count of references to valid blocks.
system.cpu.dtb_walker_cache.tags.avg_refs          nan                       # Average number of references to valid blocks.
system.cpu.dtb_walker_cache.tags.warmup_cycle            0                       # Cycle when the warmup percentage was hit.
system.cpu.dtb_walker_cache.tags.tag_accesses            0                       # Number of tag accesses
system.cpu.dtb_walker_cache.tags.data_accesses            0                       # Number of data accesses
system.cpu.dcache.pwrStateResidencyTicks::UNDEFINED 560761653723000                       # Cumulative time (in ticks) in various power states
system.cpu.dcache.demand_hits::.cpu.data            3                       # number of demand (read+write) hits
system.cpu.dcache.demand_hits::.switch_cpus.data     36846297                       # number of demand (read+write) hits
system.cpu.dcache.demand_hits::total         36846300                       # number of demand (read+write) hits
system.cpu.dcache.overall_hits::.cpu.data            3                       # number of overall hits
system.cpu.dcache.overall_hits::.switch_cpus.data     36904046                       # number of overall hits
system.cpu.dcache.overall_hits::total        36904049                       # number of overall hits
system.cpu.dcache.demand_misses::.cpu.data            3                       # number of demand (read+write) misses
system.cpu.dcache.demand_misses::.switch_cpus.data       661987                       # number of demand (read+write) misses
system.cpu.dcache.demand_misses::total         661990                       # number of demand (read+write) misses
system.cpu.dcache.overall_misses::.cpu.data            3                       # number of overall misses
system.cpu.dcache.overall_misses::.switch_cpus.data       677808                       # number of overall misses
system.cpu.dcache.overall_misses::total        677811                       # number of overall misses
system.cpu.dcache.demand_miss_latency::.switch_cpus.data  46567359870                       # number of demand (read+write) miss cycles
system.cpu.dcache.demand_miss_latency::total  46567359870                       # number of demand (read+write) miss cycles
system.cpu.dcache.overall_miss_latency::.switch_cpus.data  46567359870                       # number of overall miss cycles
system.cpu.dcache.overall_miss_latency::total  46567359870                       # number of overall miss cycles
system.cpu.dcache.demand_accesses::.cpu.data            6                       # number of demand (read+write) accesses
system.cpu.dcache.demand_accesses::.switch_cpus.data     37508284                       # number of demand (read+write) accesses
system.cpu.dcache.demand_accesses::total     37508290                       # number of demand (read+write) accesses
system.cpu.dcache.overall_accesses::.cpu.data            6                       # number of overall (read+write) accesses
system.cpu.dcache.overall_accesses::.switch_cpus.data     37581854                       # number of overall (read+write) accesses
system.cpu.dcache.overall_accesses::total     37581860                       # number of overall (read+write) accesses
system.cpu.dcache.demand_miss_rate::.cpu.data     0.500000                       # miss rate for demand accesses
system.cpu.dcache.demand_miss_rate::.switch_cpus.data     0.017649                       # miss rate for demand accesses
system.cpu.dcache.demand_miss_rate::total     0.017649                       # miss rate for demand accesses
system.cpu.dcache.overall_miss_rate::.cpu.data     0.500000                       # miss rate for overall accesses
system.cpu.dcache.overall_miss_rate::.switch_cpus.data     0.018036                       # miss rate for overall accesses
system.cpu.dcache.overall_miss_rate::total     0.018036                       # miss rate for overall accesses
system.cpu.dcache.demand_avg_miss_latency::.switch_cpus.data 70344.825306                       # average overall miss latency
system.cpu.dcache.demand_avg_miss_latency::total 70344.506518                       # average overall miss latency
system.cpu.dcache.overall_avg_miss_latency::.switch_cpus.data 68702.877319                       # average overall miss latency
system.cpu.dcache.overall_avg_miss_latency::total 68702.573239                       # average overall miss latency
system.cpu.dcache.blocked_cycles::no_mshrs      7583659                       # number of cycles access was blocked
system.cpu.dcache.blocked_cycles::no_targets          404                       # number of cycles access was blocked
system.cpu.dcache.blocked::no_mshrs            129492                       # number of cycles access was blocked
system.cpu.dcache.blocked::no_targets               4                       # number of cycles access was blocked
system.cpu.dcache.avg_blocked_cycles::no_mshrs    58.564691                       # average number of cycles each access was blocked
system.cpu.dcache.avg_blocked_cycles::no_targets          101                       # average number of cycles each access was blocked
system.cpu.dcache.writebacks::.writebacks       215889                       # number of writebacks
system.cpu.dcache.writebacks::total            215889                       # number of writebacks
system.cpu.dcache.demand_mshr_hits::.switch_cpus.data       218558                       # number of demand (read+write) MSHR hits
system.cpu.dcache.demand_mshr_hits::total       218558                       # number of demand (read+write) MSHR hits
system.cpu.dcache.overall_mshr_hits::.switch_cpus.data       218558                       # number of overall MSHR hits
system.cpu.dcache.overall_mshr_hits::total       218558                       # number of overall MSHR hits
system.cpu.dcache.demand_mshr_misses::.switch_cpus.data       443429                       # number of demand (read+write) MSHR misses
system.cpu.dcache.demand_mshr_misses::total       443429                       # number of demand (read+write) MSHR misses
system.cpu.dcache.overall_mshr_misses::.switch_cpus.data       448869                       # number of overall MSHR misses
system.cpu.dcache.overall_mshr_misses::total       448869                       # number of overall MSHR misses
system.cpu.dcache.demand_mshr_miss_latency::.switch_cpus.data  32603646870                       # number of demand (read+write) MSHR miss cycles
system.cpu.dcache.demand_mshr_miss_latency::total  32603646870                       # number of demand (read+write) MSHR miss cycles
system.cpu.dcache.overall_mshr_miss_latency::.switch_cpus.data  33075422370                       # number of overall MSHR miss cycles
system.cpu.dcache.overall_mshr_miss_latency::total  33075422370                       # number of overall MSHR miss cycles
system.cpu.dcache.demand_mshr_miss_rate::.switch_cpus.data     0.011822                       # mshr miss rate for demand accesses
system.cpu.dcache.demand_mshr_miss_rate::total     0.011822                       # mshr miss rate for demand accesses
system.cpu.dcache.overall_mshr_miss_rate::.switch_cpus.data     0.011944                       # mshr miss rate for overall accesses
system.cpu.dcache.overall_mshr_miss_rate::total     0.011944                       # mshr miss rate for overall accesses
system.cpu.dcache.demand_avg_mshr_miss_latency::.switch_cpus.data 73526.194430                       # average overall mshr miss latency
system.cpu.dcache.demand_avg_mshr_miss_latency::total 73526.194430                       # average overall mshr miss latency
system.cpu.dcache.overall_avg_mshr_miss_latency::.switch_cpus.data 73686.136423                       # average overall mshr miss latency
system.cpu.dcache.overall_avg_mshr_miss_latency::total 73686.136423                       # average overall mshr miss latency
system.cpu.dcache.replacements                 447847                       # number of replacements
system.cpu.dcache.ReadReq_hits::.cpu.data            1                       # number of ReadReq hits
system.cpu.dcache.ReadReq_hits::.switch_cpus.data     27991451                       # number of ReadReq hits
system.cpu.dcache.ReadReq_hits::total        27991452                       # number of ReadReq hits
system.cpu.dcache.ReadReq_misses::.cpu.data            1                       # number of ReadReq misses
system.cpu.dcache.ReadReq_misses::.switch_cpus.data       534116                       # number of ReadReq misses
system.cpu.dcache.ReadReq_misses::total        534117                       # number of ReadReq misses
system.cpu.dcache.ReadReq_miss_latency::.switch_cpus.data  36925773000                       # number of ReadReq miss cycles
system.cpu.dcache.ReadReq_miss_latency::total  36925773000                       # number of ReadReq miss cycles
system.cpu.dcache.ReadReq_accesses::.cpu.data            2                       # number of ReadReq accesses(hits+misses)
system.cpu.dcache.ReadReq_accesses::.switch_cpus.data     28525567                       # number of ReadReq accesses(hits+misses)
system.cpu.dcache.ReadReq_accesses::total     28525569                       # number of ReadReq accesses(hits+misses)
system.cpu.dcache.ReadReq_miss_rate::.cpu.data     0.500000                       # miss rate for ReadReq accesses
system.cpu.dcache.ReadReq_miss_rate::.switch_cpus.data     0.018724                       # miss rate for ReadReq accesses
system.cpu.dcache.ReadReq_miss_rate::total     0.018724                       # miss rate for ReadReq accesses
system.cpu.dcache.ReadReq_avg_miss_latency::.switch_cpus.data 69134.369687                       # average ReadReq miss latency
system.cpu.dcache.ReadReq_avg_miss_latency::total 69134.240251                       # average ReadReq miss latency
system.cpu.dcache.ReadReq_mshr_hits::.switch_cpus.data       218449                       # number of ReadReq MSHR hits
system.cpu.dcache.ReadReq_mshr_hits::total       218449                       # number of ReadReq MSHR hits
system.cpu.dcache.ReadReq_mshr_misses::.switch_cpus.data       315667                       # number of ReadReq MSHR misses
system.cpu.dcache.ReadReq_mshr_misses::total       315667                       # number of ReadReq MSHR misses
system.cpu.dcache.ReadReq_mshr_miss_latency::.switch_cpus.data  23091329000                       # number of ReadReq MSHR miss cycles
system.cpu.dcache.ReadReq_mshr_miss_latency::total  23091329000                       # number of ReadReq MSHR miss cycles
system.cpu.dcache.ReadReq_mshr_miss_rate::.switch_cpus.data     0.011066                       # mshr miss rate for ReadReq accesses
system.cpu.dcache.ReadReq_mshr_miss_rate::total     0.011066                       # mshr miss rate for ReadReq accesses
system.cpu.dcache.ReadReq_avg_mshr_miss_latency::.switch_cpus.data 73150.912195                       # average ReadReq mshr miss latency
system.cpu.dcache.ReadReq_avg_mshr_miss_latency::total 73150.912195                       # average ReadReq mshr miss latency
system.cpu.dcache.WriteReq_hits::.cpu.data            2                       # number of WriteReq hits
system.cpu.dcache.WriteReq_hits::.switch_cpus.data      8854846                       # number of WriteReq hits
system.cpu.dcache.WriteReq_hits::total        8854848                       # number of WriteReq hits
system.cpu.dcache.WriteReq_misses::.cpu.data            2                       # number of WriteReq misses
system.cpu.dcache.WriteReq_misses::.switch_cpus.data       127871                       # number of WriteReq misses
system.cpu.dcache.WriteReq_misses::total       127873                       # number of WriteReq misses
system.cpu.dcache.WriteReq_miss_latency::.switch_cpus.data   9641586870                       # number of WriteReq miss cycles
system.cpu.dcache.WriteReq_miss_latency::total   9641586870                       # number of WriteReq miss cycles
system.cpu.dcache.WriteReq_accesses::.cpu.data            4                       # number of WriteReq accesses(hits+misses)
system.cpu.dcache.WriteReq_accesses::.switch_cpus.data      8982717                       # number of WriteReq accesses(hits+misses)
system.cpu.dcache.WriteReq_accesses::total      8982721                       # number of WriteReq accesses(hits+misses)
system.cpu.dcache.WriteReq_miss_rate::.cpu.data     0.500000                       # miss rate for WriteReq accesses
system.cpu.dcache.WriteReq_miss_rate::.switch_cpus.data     0.014235                       # miss rate for WriteReq accesses
system.cpu.dcache.WriteReq_miss_rate::total     0.014235                       # miss rate for WriteReq accesses
system.cpu.dcache.WriteReq_avg_miss_latency::.switch_cpus.data 75400.887379                       # average WriteReq miss latency
system.cpu.dcache.WriteReq_avg_miss_latency::total 75399.708070                       # average WriteReq miss latency
system.cpu.dcache.WriteReq_mshr_hits::.switch_cpus.data          109                       # number of WriteReq MSHR hits
system.cpu.dcache.WriteReq_mshr_hits::total          109                       # number of WriteReq MSHR hits
system.cpu.dcache.WriteReq_mshr_misses::.switch_cpus.data       127762                       # number of WriteReq MSHR misses
system.cpu.dcache.WriteReq_mshr_misses::total       127762                       # number of WriteReq MSHR misses
system.cpu.dcache.WriteReq_mshr_miss_latency::.switch_cpus.data   9512317870                       # number of WriteReq MSHR miss cycles
system.cpu.dcache.WriteReq_mshr_miss_latency::total   9512317870                       # number of WriteReq MSHR miss cycles
system.cpu.dcache.WriteReq_mshr_miss_rate::.switch_cpus.data     0.014223                       # mshr miss rate for WriteReq accesses
system.cpu.dcache.WriteReq_mshr_miss_rate::total     0.014223                       # mshr miss rate for WriteReq accesses
system.cpu.dcache.WriteReq_avg_mshr_miss_latency::.switch_cpus.data 74453.420188                       # average WriteReq mshr miss latency
system.cpu.dcache.WriteReq_avg_mshr_miss_latency::total 74453.420188                       # average WriteReq mshr miss latency
system.cpu.dcache.SoftPFReq_hits::.switch_cpus.data        57749                       # number of SoftPFReq hits
system.cpu.dcache.SoftPFReq_hits::total         57749                       # number of SoftPFReq hits
system.cpu.dcache.SoftPFReq_misses::.switch_cpus.data        15821                       # number of SoftPFReq misses
system.cpu.dcache.SoftPFReq_misses::total        15821                       # number of SoftPFReq misses
system.cpu.dcache.SoftPFReq_accesses::.switch_cpus.data        73570                       # number of SoftPFReq accesses(hits+misses)
system.cpu.dcache.SoftPFReq_accesses::total        73570                       # number of SoftPFReq accesses(hits+misses)
system.cpu.dcache.SoftPFReq_miss_rate::.switch_cpus.data     0.215047                       # miss rate for SoftPFReq accesses
system.cpu.dcache.SoftPFReq_miss_rate::total     0.215047                       # miss rate for SoftPFReq accesses
system.cpu.dcache.SoftPFReq_mshr_misses::.switch_cpus.data         5440                       # number of SoftPFReq MSHR misses
system.cpu.dcache.SoftPFReq_mshr_misses::total         5440                       # number of SoftPFReq MSHR misses
system.cpu.dcache.SoftPFReq_mshr_miss_latency::.switch_cpus.data    471775500                       # number of SoftPFReq MSHR miss cycles
system.cpu.dcache.SoftPFReq_mshr_miss_latency::total    471775500                       # number of SoftPFReq MSHR miss cycles
system.cpu.dcache.SoftPFReq_mshr_miss_rate::.switch_cpus.data     0.073943                       # mshr miss rate for SoftPFReq accesses
system.cpu.dcache.SoftPFReq_mshr_miss_rate::total     0.073943                       # mshr miss rate for SoftPFReq accesses
system.cpu.dcache.SoftPFReq_avg_mshr_miss_latency::.switch_cpus.data 86723.437500                       # average SoftPFReq mshr miss latency
system.cpu.dcache.SoftPFReq_avg_mshr_miss_latency::total 86723.437500                       # average SoftPFReq mshr miss latency
system.cpu.dcache.tags.pwrStateResidencyTicks::UNDEFINED 560761653723000                       # Cumulative time (in ticks) in various power states
system.cpu.dcache.tags.tagsinuse             0.050329                       # Cycle average of tags in use
system.cpu.dcache.tags.total_refs            37352921                       # Total number of references to valid blocks.
system.cpu.dcache.tags.sampled_refs            448871                       # Sample count of references to valid blocks.
system.cpu.dcache.tags.avg_refs             83.215269                       # Average number of references to valid blocks.
system.cpu.dcache.tags.warmup_cycle      560734027452500                       # Cycle when the warmup percentage was hit.
system.cpu.dcache.tags.occ_blocks::.cpu.data     0.000002                       # Average occupied blocks per requestor
system.cpu.dcache.tags.occ_blocks::.switch_cpus.data     0.050327                       # Average occupied blocks per requestor
system.cpu.dcache.tags.occ_percent::.cpu.data     0.000000                       # Average percentage of cache occupancy
system.cpu.dcache.tags.occ_percent::.switch_cpus.data     0.000049                       # Average percentage of cache occupancy
system.cpu.dcache.tags.occ_percent::total     0.000049                       # Average percentage of cache occupancy
system.cpu.dcache.tags.occ_task_id_blocks::1024         1024                       # Occupied blocks per task id
system.cpu.dcache.tags.age_task_id_blocks_1024::0          141                       # Occupied blocks per task id
system.cpu.dcache.tags.age_task_id_blocks_1024::1          602                       # Occupied blocks per task id
system.cpu.dcache.tags.age_task_id_blocks_1024::2          280                       # Occupied blocks per task id
system.cpu.dcache.tags.age_task_id_blocks_1024::3            1                       # Occupied blocks per task id
system.cpu.dcache.tags.occ_task_id_percent::1024            1                       # Percentage of cache occupancy per task id
system.cpu.dcache.tags.tag_accesses          75612591                       # Number of tag accesses
system.cpu.dcache.tags.data_accesses         75612591                       # Number of data accesses

---------- End Simulation Statistics   ----------
