
---------- Begin Simulation Statistics ----------
final_tick                               190184173361500                       # Number of ticks from beginning of simulation (restored from checkpoints and never reset)
host_inst_rate                                  14042                       # Simulator instruction rate (inst/s)
host_mem_usage                                 827492                       # Number of bytes of host memory used
host_op_rate                                    24663                       # Simulator op (including micro ops) rate (op/s)
host_seconds                                   712.16                       # Real time elapsed on the host
host_tick_rate                               47235313                       # Simulator tick rate (ticks/s)
sim_freq                                 1000000000000                       # Frequency of simulated ticks
sim_insts                                    10000010                       # Number of instructions simulated
sim_ops                                      17564243                       # Number of ops (including micro ops) simulated
sim_seconds                                  0.033639                       # Number of seconds simulated
sim_ticks                                 33639092750                       # Number of ticks simulated
system.cpu.Branches                                 4                       # Number of branches fetched
system.cpu.committedInsts                          10                       # Number of instructions committed
system.cpu.committedOps                            20                       # Number of ops (including micro ops) committed
system.cpu.dtb.rdAccesses                           2                       # TLB accesses on read requests
system.cpu.dtb.rdMisses                             1                       # TLB misses on read requests
system.cpu.dtb.wrAccesses                           0                       # TLB accesses on write requests
system.cpu.dtb.wrMisses                             0                       # TLB misses on write requests
system.cpu.idle_fraction                            0                       # Percentage of idle cycles
system.cpu.itb.rdAccesses                           0                       # TLB accesses on read requests
system.cpu.itb.rdMisses                             0                       # TLB misses on read requests
system.cpu.itb.wrAccesses                          12                       # TLB accesses on write requests
system.cpu.itb.wrMisses                             0                       # TLB misses on write requests
system.cpu.not_idle_fraction                        1                       # Percentage of non-idle cycles
system.cpu.numCycles                               22                       # number of cpu cycles simulated
system.cpu.numWorkItemsCompleted                    0                       # number of work items this cpu completed
system.cpu.numWorkItemsStarted                      0                       # number of work items this cpu started
system.cpu.num_busy_cycles                         22                       # Number of busy cycles
system.cpu.num_cc_register_reads                   21                       # number of times the CC registers were read
system.cpu.num_cc_register_writes                  10                       # number of times the CC registers were written
system.cpu.num_conditional_control_insts            4                       # number of instructions that are conditional controls
system.cpu.num_fp_alu_accesses                      0                       # Number of float alu accesses
system.cpu.num_fp_insts                             0                       # number of float instructions
system.cpu.num_fp_register_reads                    0                       # number of times the floating registers were read
system.cpu.num_fp_register_writes                   0                       # number of times the floating registers were written
system.cpu.num_func_calls                           0                       # number of times a function call or return occured
system.cpu.num_idle_cycles                          0                       # Number of idle cycles
system.cpu.num_int_alu_accesses                    20                       # Number of integer alu accesses
system.cpu.num_int_insts                           20                       # number of integer instructions
system.cpu.num_int_register_reads                  32                       # number of times the integer registers were read
system.cpu.num_int_register_writes                 16                       # number of times the integer registers were written
system.cpu.num_load_insts                           2                       # Number of load instructions
system.cpu.num_mem_refs                             2                       # number of memory refs
system.cpu.num_store_insts                          0                       # Number of store instructions
system.cpu.num_vec_alu_accesses                     0                       # Number of vector alu accesses
system.cpu.num_vec_insts                            0                       # number of vector instructions
system.cpu.num_vec_register_reads                   0                       # number of times the vector registers were read
system.cpu.num_vec_register_writes                  0                       # number of times the vector registers were written
system.cpu.op_class::No_OpClass                     0      0.00%      0.00% # Class of executed instruction
system.cpu.op_class::IntAlu                        18     90.00%     90.00% # Class of executed instruction
system.cpu.op_class::IntMult                        0      0.00%     90.00% # Class of executed instruction
system.cpu.op_class::IntDiv                         0      0.00%     90.00% # Class of executed instruction
system.cpu.op_class::FloatAdd                       0      0.00%     90.00% # Class of executed instruction
system.cpu.op_class::FloatCmp                       0      0.00%     90.00% # Class of executed instruction
system.cpu.op_class::FloatCvt                       0      0.00%     90.00% # Class of executed instruction
system.cpu.op_class::FloatMult                      0      0.00%     90.00% # Class of executed instruction
system.cpu.op_class::FloatMultAcc                   0      0.00%     90.00% # Class of executed instruction
system.cpu.op_class::FloatDiv                       0      0.00%     90.00% # Class of executed instruction
system.cpu.op_class::FloatMisc                      0      0.00%     90.00% # Class of executed instruction
system.cpu.op_class::FloatSqrt                      0      0.00%     90.00% # Class of executed instruction
system.cpu.op_class::SimdAdd                        0      0.00%     90.00% # Class of executed instruction
system.cpu.op_class::SimdAddAcc                     0      0.00%     90.00% # Class of executed instruction
system.cpu.op_class::SimdAlu                        0      0.00%     90.00% # Class of executed instruction
system.cpu.op_class::SimdCmp                        0      0.00%     90.00% # Class of executed instruction
system.cpu.op_class::SimdCvt                        0      0.00%     90.00% # Class of executed instruction
system.cpu.op_class::SimdMisc                       0      0.00%     90.00% # Class of executed instruction
system.cpu.op_class::SimdMult                       0      0.00%     90.00% # Class of executed instruction
system.cpu.op_class::SimdMultAcc                    0      0.00%     90.00% # Class of executed instruction
system.cpu.op_class::SimdShift                      0      0.00%     90.00% # Class of executed instruction
system.cpu.op_class::SimdShiftAcc                   0      0.00%     90.00% # Class of executed instruction
system.cpu.op_class::SimdDiv                        0      0.00%     90.00% # Class of executed instruction
system.cpu.op_class::SimdSqrt                       0      0.00%     90.00% # Class of executed instruction
system.cpu.op_class::SimdFloatAdd                   0      0.00%     90.00% # Class of executed instruction
system.cpu.op_class::SimdFloatAlu                   0      0.00%     90.00% # Class of executed instruction
system.cpu.op_class::SimdFloatCmp                   0      0.00%     90.00% # Class of executed instruction
system.cpu.op_class::SimdFloatCvt                   0      0.00%     90.00% # Class of executed instruction
system.cpu.op_class::SimdFloatDiv                   0      0.00%     90.00% # Class of executed instruction
system.cpu.op_class::SimdFloatMisc                  0      0.00%     90.00% # Class of executed instruction
system.cpu.op_class::SimdFloatMult                  0      0.00%     90.00% # Class of executed instruction
system.cpu.op_class::SimdFloatMultAcc               0      0.00%     90.00% # Class of executed instruction
system.cpu.op_class::SimdFloatSqrt                  0      0.00%     90.00% # Class of executed instruction
system.cpu.op_class::SimdReduceAdd                  0      0.00%     90.00% # Class of executed instruction
system.cpu.op_class::SimdReduceAlu                  0      0.00%     90.00% # Class of executed instruction
system.cpu.op_class::SimdReduceCmp                  0      0.00%     90.00% # Class of executed instruction
system.cpu.op_class::SimdFloatReduceAdd             0      0.00%     90.00% # Class of executed instruction
system.cpu.op_class::SimdFloatReduceCmp             0      0.00%     90.00% # Class of executed instruction
system.cpu.op_class::SimdAes                        0      0.00%     90.00% # Class of executed instruction
system.cpu.op_class::SimdAesMix                     0      0.00%     90.00% # Class of executed instruction
system.cpu.op_class::SimdSha1Hash                   0      0.00%     90.00% # Class of executed instruction
system.cpu.op_class::SimdSha1Hash2                  0      0.00%     90.00% # Class of executed instruction
system.cpu.op_class::SimdSha256Hash                 0      0.00%     90.00% # Class of executed instruction
system.cpu.op_class::SimdSha256Hash2                0      0.00%     90.00% # Class of executed instruction
system.cpu.op_class::SimdShaSigma2                  0      0.00%     90.00% # Class of executed instruction
system.cpu.op_class::SimdShaSigma3                  0      0.00%     90.00% # Class of executed instruction
system.cpu.op_class::SimdPredAlu                    0      0.00%     90.00% # Class of executed instruction
system.cpu.op_class::MemRead                        2     10.00%    100.00% # Class of executed instruction
system.cpu.op_class::MemWrite                       0      0.00%    100.00% # Class of executed instruction
system.cpu.op_class::FloatMemRead                   0      0.00%    100.00% # Class of executed instruction
system.cpu.op_class::FloatMemWrite                  0      0.00%    100.00% # Class of executed instruction
system.cpu.op_class::IprAccess                      0      0.00%    100.00% # Class of executed instruction
system.cpu.op_class::InstPrefetch                   0      0.00%    100.00% # Class of executed instruction
system.cpu.op_class::total                         20                       # Class of executed instruction
system.cpu.workload.numSyscalls                     0                       # Number of system calls
system.membus.snoop_filter.hit_multi_requests            0                       # Number of requests hitting in the snoop filter with multiple (>1) holders of the requested data.
system.membus.snoop_filter.hit_multi_snoops            0                       # Number of snoops hitting in the snoop filter with multiple (>1) holders of the requested data.
system.membus.snoop_filter.hit_single_requests      1036936                       # Number of requests hitting in the snoop filter with a single holder of the requested data.
system.membus.snoop_filter.hit_single_snoops            0                       # Number of snoops hitting in the snoop filter with a single holder of the requested data.
system.membus.snoop_filter.tot_requests       2076222                       # Total number of requests made to the snoop filter.
system.membus.snoop_filter.tot_snoops               0                       # Total number of snoops made to the snoop filter.
system.switch_cpus.branchPred.BTBCorrect            0                       # Number of correct BTB predictions (this stat may not work properly.
system.switch_cpus.branchPred.BTBHitPct      0.000000                       # BTB Hit Percentage
system.switch_cpus.branchPred.BTBHits               0                       # Number of BTB hits
system.switch_cpus.branchPred.BTBLookups      3088534                       # Number of BTB lookups
system.switch_cpus.branchPred.RASInCorrect            1                       # Number of incorrect RAS predictions.
system.switch_cpus.branchPred.condIncorrect       175755                       # Number of conditional branches incorrect
system.switch_cpus.branchPred.condPredicted      4236669                       # Number of conditional branches predicted
system.switch_cpus.branchPred.indirectHits      1899159                       # Number of indirect target hits.
system.switch_cpus.branchPred.indirectLookups      3088534                       # Number of indirect predictor lookups.
system.switch_cpus.branchPred.indirectMisses      1189375                       # Number of indirect misses.
system.switch_cpus.branchPred.lookups         4295956                       # Number of BP lookups
system.switch_cpus.branchPred.usedRAS           32502                       # Number of times the RAS was used to get a target.
system.switch_cpus.branchPredindirectMispredicted       118031                       # Number of mispredicted indirect branches.
system.switch_cpus.cc_regfile_reads          15710627                       # number of cc regfile reads
system.switch_cpus.cc_regfile_writes          9250850                       # number of cc regfile writes
system.switch_cpus.commit.amos                      0                       # Number of atomic instructions committed
system.switch_cpus.commit.branchMispredicts       175779                       # The number of times a branch was mispredicted
system.switch_cpus.commit.branches            2713376                       # Number of branches committed
system.switch_cpus.commit.bw_lim_events       1354759                       # number cycles where commit BW limit reached
system.switch_cpus.commit.commitSquashedInsts      6707854                       # The number of squashed insts skipped by commit
system.switch_cpus.commit.committedInsts     10000000                       # Number of instructions committed
system.switch_cpus.commit.committedOps       17564223                       # Number of ops (including micro ops) committed
system.switch_cpus.commit.committed_per_cycle::samples     66236720                       # Number of insts commited each cycle
system.switch_cpus.commit.committed_per_cycle::mean     0.265174                       # Number of insts commited each cycle
system.switch_cpus.commit.committed_per_cycle::stdev     1.247009                       # Number of insts commited each cycle
system.switch_cpus.commit.committed_per_cycle::underflows            0      0.00%      0.00% # Number of insts commited each cycle
system.switch_cpus.commit.committed_per_cycle::0     61999610     93.60%     93.60% # Number of insts commited each cycle
system.switch_cpus.commit.committed_per_cycle::1      1103079      1.67%     95.27% # Number of insts commited each cycle
system.switch_cpus.commit.committed_per_cycle::2       428606      0.65%     95.92% # Number of insts commited each cycle
system.switch_cpus.commit.committed_per_cycle::3       973928      1.47%     97.39% # Number of insts commited each cycle
system.switch_cpus.commit.committed_per_cycle::4       159696      0.24%     97.63% # Number of insts commited each cycle
system.switch_cpus.commit.committed_per_cycle::5       131102      0.20%     97.82% # Number of insts commited each cycle
system.switch_cpus.commit.committed_per_cycle::6        51798      0.08%     97.90% # Number of insts commited each cycle
system.switch_cpus.commit.committed_per_cycle::7        34142      0.05%     97.95% # Number of insts commited each cycle
system.switch_cpus.commit.committed_per_cycle::8      1354759      2.05%    100.00% # Number of insts commited each cycle
system.switch_cpus.commit.committed_per_cycle::overflows            0      0.00%    100.00% # Number of insts commited each cycle
system.switch_cpus.commit.committed_per_cycle::min_value            0                       # Number of insts commited each cycle
system.switch_cpus.commit.committed_per_cycle::max_value            8                       # Number of insts commited each cycle
system.switch_cpus.commit.committed_per_cycle::total     66236720                       # Number of insts commited each cycle
system.switch_cpus.commit.fp_insts                  0                       # Number of committed floating point instructions.
system.switch_cpus.commit.function_calls         2082                       # Number of function calls committed.
system.switch_cpus.commit.int_insts          17541010                       # Number of committed integer instructions.
system.switch_cpus.commit.loads               3923977                       # Number of loads committed
system.switch_cpus.commit.membars                   0                       # Number of memory barriers committed
system.switch_cpus.commit.op_class_0::No_OpClass        20038      0.11%      0.11% # Class of committed instruction
system.switch_cpus.commit.op_class_0::IntAlu     13353407     76.03%     76.14% # Class of committed instruction
system.switch_cpus.commit.op_class_0::IntMult          330      0.00%     76.14% # Class of committed instruction
system.switch_cpus.commit.op_class_0::IntDiv            0      0.00%     76.14% # Class of committed instruction
system.switch_cpus.commit.op_class_0::FloatAdd            0      0.00%     76.14% # Class of committed instruction
system.switch_cpus.commit.op_class_0::FloatCmp            0      0.00%     76.14% # Class of committed instruction
system.switch_cpus.commit.op_class_0::FloatCvt            0      0.00%     76.14% # Class of committed instruction
system.switch_cpus.commit.op_class_0::FloatMult            0      0.00%     76.14% # Class of committed instruction
system.switch_cpus.commit.op_class_0::FloatMultAcc            0      0.00%     76.14% # Class of committed instruction
system.switch_cpus.commit.op_class_0::FloatDiv            0      0.00%     76.14% # Class of committed instruction
system.switch_cpus.commit.op_class_0::FloatMisc            0      0.00%     76.14% # Class of committed instruction
system.switch_cpus.commit.op_class_0::FloatSqrt            0      0.00%     76.14% # Class of committed instruction
system.switch_cpus.commit.op_class_0::SimdAdd            0      0.00%     76.14% # Class of committed instruction
system.switch_cpus.commit.op_class_0::SimdAddAcc            0      0.00%     76.14% # Class of committed instruction
system.switch_cpus.commit.op_class_0::SimdAlu            0      0.00%     76.14% # Class of committed instruction
system.switch_cpus.commit.op_class_0::SimdCmp            0      0.00%     76.14% # Class of committed instruction
system.switch_cpus.commit.op_class_0::SimdCvt            0      0.00%     76.14% # Class of committed instruction
system.switch_cpus.commit.op_class_0::SimdMisc            0      0.00%     76.14% # Class of committed instruction
system.switch_cpus.commit.op_class_0::SimdMult            0      0.00%     76.14% # Class of committed instruction
system.switch_cpus.commit.op_class_0::SimdMultAcc            0      0.00%     76.14% # Class of committed instruction
system.switch_cpus.commit.op_class_0::SimdShift            0      0.00%     76.14% # Class of committed instruction
system.switch_cpus.commit.op_class_0::SimdShiftAcc            0      0.00%     76.14% # Class of committed instruction
system.switch_cpus.commit.op_class_0::SimdDiv            0      0.00%     76.14% # Class of committed instruction
system.switch_cpus.commit.op_class_0::SimdSqrt            0      0.00%     76.14% # Class of committed instruction
system.switch_cpus.commit.op_class_0::SimdFloatAdd            0      0.00%     76.14% # Class of committed instruction
system.switch_cpus.commit.op_class_0::SimdFloatAlu            0      0.00%     76.14% # Class of committed instruction
system.switch_cpus.commit.op_class_0::SimdFloatCmp            0      0.00%     76.14% # Class of committed instruction
system.switch_cpus.commit.op_class_0::SimdFloatCvt            0      0.00%     76.14% # Class of committed instruction
system.switch_cpus.commit.op_class_0::SimdFloatDiv            0      0.00%     76.14% # Class of committed instruction
system.switch_cpus.commit.op_class_0::SimdFloatMisc            0      0.00%     76.14% # Class of committed instruction
system.switch_cpus.commit.op_class_0::SimdFloatMult            0      0.00%     76.14% # Class of committed instruction
system.switch_cpus.commit.op_class_0::SimdFloatMultAcc            0      0.00%     76.14% # Class of committed instruction
system.switch_cpus.commit.op_class_0::SimdFloatSqrt            0      0.00%     76.14% # Class of committed instruction
system.switch_cpus.commit.op_class_0::SimdReduceAdd            0      0.00%     76.14% # Class of committed instruction
system.switch_cpus.commit.op_class_0::SimdReduceAlu            0      0.00%     76.14% # Class of committed instruction
system.switch_cpus.commit.op_class_0::SimdReduceCmp            0      0.00%     76.14% # Class of committed instruction
system.switch_cpus.commit.op_class_0::SimdFloatReduceAdd            0      0.00%     76.14% # Class of committed instruction
system.switch_cpus.commit.op_class_0::SimdFloatReduceCmp            0      0.00%     76.14% # Class of committed instruction
system.switch_cpus.commit.op_class_0::SimdAes            0      0.00%     76.14% # Class of committed instruction
system.switch_cpus.commit.op_class_0::SimdAesMix            0      0.00%     76.14% # Class of committed instruction
system.switch_cpus.commit.op_class_0::SimdSha1Hash            0      0.00%     76.14% # Class of committed instruction
system.switch_cpus.commit.op_class_0::SimdSha1Hash2            0      0.00%     76.14% # Class of committed instruction
system.switch_cpus.commit.op_class_0::SimdSha256Hash            0      0.00%     76.14% # Class of committed instruction
system.switch_cpus.commit.op_class_0::SimdSha256Hash2            0      0.00%     76.14% # Class of committed instruction
system.switch_cpus.commit.op_class_0::SimdShaSigma2            0      0.00%     76.14% # Class of committed instruction
system.switch_cpus.commit.op_class_0::SimdShaSigma3            0      0.00%     76.14% # Class of committed instruction
system.switch_cpus.commit.op_class_0::SimdPredAlu            0      0.00%     76.14% # Class of committed instruction
system.switch_cpus.commit.op_class_0::MemRead      3923977     22.34%     98.48% # Class of committed instruction
system.switch_cpus.commit.op_class_0::MemWrite       266471      1.52%    100.00% # Class of committed instruction
system.switch_cpus.commit.op_class_0::FloatMemRead            0      0.00%    100.00% # Class of committed instruction
system.switch_cpus.commit.op_class_0::FloatMemWrite            0      0.00%    100.00% # Class of committed instruction
system.switch_cpus.commit.op_class_0::IprAccess            0      0.00%    100.00% # Class of committed instruction
system.switch_cpus.commit.op_class_0::InstPrefetch            0      0.00%    100.00% # Class of committed instruction
system.switch_cpus.commit.op_class_0::total     17564223                       # Class of committed instruction
system.switch_cpus.commit.refs                4190448                       # Number of memory references committed
system.switch_cpus.commit.swp_count                 0                       # Number of s/w prefetches committed
system.switch_cpus.commit.vec_insts                 0                       # Number of committed Vector instructions.
system.switch_cpus.committedInsts            10000000                       # Number of Instructions Simulated
system.switch_cpus.committedOps              17564223                       # Number of Ops (including micro ops) Simulated
system.switch_cpus.cpi                       6.727816                       # CPI: Cycles Per Instruction
system.switch_cpus.cpi_total                 6.727816                       # CPI: Total CPI of All Threads
system.switch_cpus.decode.BlockedCycles      62267632                       # Number of cycles decode is blocked
system.switch_cpus.decode.DecodedInsts       26604190                       # Number of instructions handled by decode
system.switch_cpus.decode.IdleCycles          1241806                       # Number of cycles decode is idle
system.switch_cpus.decode.RunCycles           1985541                       # Number of cycles decode is running
system.switch_cpus.decode.SquashCycles         176271                       # Number of cycles decode is squashing
system.switch_cpus.decode.UnblockCycles       1602386                       # Number of cycles decode is unblocking
system.switch_cpus.dtb.rdAccesses             4614352                       # TLB accesses on read requests
system.switch_cpus.dtb.rdMisses               1390601                       # TLB misses on read requests
system.switch_cpus.dtb.wrAccesses              387888                       # TLB accesses on write requests
system.switch_cpus.dtb.wrMisses                  9872                       # TLB misses on write requests
system.switch_cpus.fetch.Branches             4295956                       # Number of branches that fetch encountered
system.switch_cpus.fetch.CacheLines            904104                       # Number of cache lines fetched
system.switch_cpus.fetch.Cycles              66094513                       # Number of cycles fetch has run and was not squashing or blocked
system.switch_cpus.fetch.IcacheSquashes         34151                       # Number of outstanding Icache misses that were squashed
system.switch_cpus.fetch.Insts               16821346                       # Number of instructions fetch has processed
system.switch_cpus.fetch.MiscStallCycles           23                       # Number of cycles fetch has spent waiting on interrupts, or bad addresses, or out of MSHRs
system.switch_cpus.fetch.PendingTrapStallCycles          214                       # Number of stall cycles due to pending traps
system.switch_cpus.fetch.SquashCycles          352542                       # Number of cycles fetch has spent squashing
system.switch_cpus.fetch.branchRate          0.063854                       # Number of branch fetches per cycle
system.switch_cpus.fetch.icacheStallCycles      1002622                       # Number of cycles fetch is stalled on an Icache miss
system.switch_cpus.fetch.predictedBranches      1931661                       # Number of branches that fetch has predicted taken
system.switch_cpus.fetch.rate                0.250027                       # Number of inst fetches per cycle
system.switch_cpus.fetch.rateDist::samples     67273643                       # Number of instructions fetched each cycle (Total)
system.switch_cpus.fetch.rateDist::mean      0.434883                       # Number of instructions fetched each cycle (Total)
system.switch_cpus.fetch.rateDist::stdev     1.657747                       # Number of instructions fetched each cycle (Total)
system.switch_cpus.fetch.rateDist::underflows            0      0.00%      0.00% # Number of instructions fetched each cycle (Total)
system.switch_cpus.fetch.rateDist::0         62235860     92.51%     92.51% # Number of instructions fetched each cycle (Total)
system.switch_cpus.fetch.rateDist::1           302224      0.45%     92.96% # Number of instructions fetched each cycle (Total)
system.switch_cpus.fetch.rateDist::2           314194      0.47%     93.43% # Number of instructions fetched each cycle (Total)
system.switch_cpus.fetch.rateDist::3           337332      0.50%     93.93% # Number of instructions fetched each cycle (Total)
system.switch_cpus.fetch.rateDist::4           552020      0.82%     94.75% # Number of instructions fetched each cycle (Total)
system.switch_cpus.fetch.rateDist::5           818712      1.22%     95.97% # Number of instructions fetched each cycle (Total)
system.switch_cpus.fetch.rateDist::6           235080      0.35%     96.32% # Number of instructions fetched each cycle (Total)
system.switch_cpus.fetch.rateDist::7           224308      0.33%     96.65% # Number of instructions fetched each cycle (Total)
system.switch_cpus.fetch.rateDist::8          2253913      3.35%    100.00% # Number of instructions fetched each cycle (Total)
system.switch_cpus.fetch.rateDist::overflows            0      0.00%    100.00% # Number of instructions fetched each cycle (Total)
system.switch_cpus.fetch.rateDist::min_value            0                       # Number of instructions fetched each cycle (Total)
system.switch_cpus.fetch.rateDist::max_value            8                       # Number of instructions fetched each cycle (Total)
system.switch_cpus.fetch.rateDist::total     67273643                       # Number of instructions fetched each cycle (Total)
system.switch_cpus.fp_regfile_writes               56                       # number of floating regfile writes
system.switch_cpus.idleCycles                    4520                       # Total number of cycles that the CPU has spent unscheduled due to idling
system.switch_cpus.iew.branchMispredicts       223981                       # Number of branch mispredicts detected at execute
system.switch_cpus.iew.exec_branches          3108221                       # Number of branches executed
system.switch_cpus.iew.exec_nop                     0                       # number of nop insts executed
system.switch_cpus.iew.exec_rate             0.508940                       # Inst execution rate
system.switch_cpus.iew.exec_refs             17513225                       # number of memory reference insts executed
system.switch_cpus.iew.exec_stores             387877                       # Number of stores executed
system.switch_cpus.iew.exec_swp                     0                       # number of swp insts executed
system.switch_cpus.iew.iewBlockCycles        19891224                       # Number of cycles IEW is blocking
system.switch_cpus.iew.iewDispLoadInsts       5126133                       # Number of dispatched load instructions
system.switch_cpus.iew.iewDispNonSpecInsts            0                       # Number of dispatched non-speculative instructions
system.switch_cpus.iew.iewDispSquashedInsts        27939                       # Number of squashed instructions skipped by dispatch
system.switch_cpus.iew.iewDispStoreInsts       584001                       # Number of dispatched store instructions
system.switch_cpus.iew.iewDispatchedInsts     24264682                       # Number of instructions dispatched to IQ
system.switch_cpus.iew.iewExecLoadInsts      17125348                       # Number of load instructions executed
system.switch_cpus.iew.iewExecSquashedInsts       382615                       # Number of squashed instructions skipped in execute
system.switch_cpus.iew.iewExecutedInsts      34240572                       # Number of executed instructions
system.switch_cpus.iew.iewIQFullEvents         260963                       # Number of times the IQ has become full, causing a stall
system.switch_cpus.iew.iewIdleCycles                0                       # Number of cycles IEW is idle
system.switch_cpus.iew.iewLSQFullEvents      10222824                       # Number of times the LSQ has become full, causing a stall
system.switch_cpus.iew.iewSquashCycles         176271                       # Number of cycles IEW is squashing
system.switch_cpus.iew.iewUnblockCycles      10690895                       # Number of cycles IEW is unblocking
system.switch_cpus.iew.lsq.thread0.blockedLoads            0                       # Number of blocked loads due to partial load-store forwarding
system.switch_cpus.iew.lsq.thread0.cacheBlocked      1237014                       # Number of times an access to memory failed due to the cache being blocked
system.switch_cpus.iew.lsq.thread0.forwLoads        44602                       # Number of loads that had data forwarded from stores
system.switch_cpus.iew.lsq.thread0.ignoredResponses          406                       # Number of memory responses ignored because the instruction is squashed
system.switch_cpus.iew.lsq.thread0.invAddrLoads            0                       # Number of loads ignored due to an invalid address
system.switch_cpus.iew.lsq.thread0.invAddrSwpfs            0                       # Number of software prefetches ignored due to an invalid address
system.switch_cpus.iew.lsq.thread0.memOrderViolation          849                       # Number of memory ordering violations
system.switch_cpus.iew.lsq.thread0.rescheduledLoads            0                       # Number of loads that were rescheduled
system.switch_cpus.iew.lsq.thread0.squashedLoads      1202130                       # Number of loads squashed
system.switch_cpus.iew.lsq.thread0.squashedStores       317530                       # Number of stores squashed
system.switch_cpus.iew.memOrderViolationEvents          849                       # Number of memory order violations
system.switch_cpus.iew.predictedNotTakenIncorrect       181990                       # Number of branches that were predicted not taken incorrectly
system.switch_cpus.iew.predictedTakenIncorrect        41991                       # Number of branches that were predicted taken incorrectly
system.switch_cpus.iew.wb_consumers          22071596                       # num instructions consuming a value
system.switch_cpus.iew.wb_count              21364534                       # cumulative count of insts written-back
system.switch_cpus.iew.wb_fanout             0.710742                       # average fanout of values written-back
system.switch_cpus.iew.wb_producers          15687203                       # num instructions producing a value
system.switch_cpus.iew.wb_rate               0.317555                       # insts written-back per cycle
system.switch_cpus.iew.wb_sent               21421352                       # cumulative count of insts sent to commit
system.switch_cpus.int_regfile_reads         52716244                       # number of integer regfile reads
system.switch_cpus.int_regfile_writes        17806257                       # number of integer regfile writes
system.switch_cpus.ipc                       0.148637                       # IPC: Instructions Per Cycle
system.switch_cpus.ipc_total                 0.148637                       # IPC: Total IPC of All Threads
system.switch_cpus.iq.FU_type_0::No_OpClass        99658      0.29%      0.29% # Type of FU issued
system.switch_cpus.iq.FU_type_0::IntAlu      16907446     48.83%     49.12% # Type of FU issued
system.switch_cpus.iq.FU_type_0::IntMult          534      0.00%     49.12% # Type of FU issued
system.switch_cpus.iq.FU_type_0::IntDiv             0      0.00%     49.12% # Type of FU issued
system.switch_cpus.iq.FU_type_0::FloatAdd            0      0.00%     49.12% # Type of FU issued
system.switch_cpus.iq.FU_type_0::FloatCmp            0      0.00%     49.12% # Type of FU issued
system.switch_cpus.iq.FU_type_0::FloatCvt            0      0.00%     49.12% # Type of FU issued
system.switch_cpus.iq.FU_type_0::FloatMult            0      0.00%     49.12% # Type of FU issued
system.switch_cpus.iq.FU_type_0::FloatMultAcc            0      0.00%     49.12% # Type of FU issued
system.switch_cpus.iq.FU_type_0::FloatDiv            0      0.00%     49.12% # Type of FU issued
system.switch_cpus.iq.FU_type_0::FloatMisc            0      0.00%     49.12% # Type of FU issued
system.switch_cpus.iq.FU_type_0::FloatSqrt            0      0.00%     49.12% # Type of FU issued
system.switch_cpus.iq.FU_type_0::SimdAdd            0      0.00%     49.12% # Type of FU issued
system.switch_cpus.iq.FU_type_0::SimdAddAcc            0      0.00%     49.12% # Type of FU issued
system.switch_cpus.iq.FU_type_0::SimdAlu            0      0.00%     49.12% # Type of FU issued
system.switch_cpus.iq.FU_type_0::SimdCmp            0      0.00%     49.12% # Type of FU issued
system.switch_cpus.iq.FU_type_0::SimdCvt            0      0.00%     49.12% # Type of FU issued
system.switch_cpus.iq.FU_type_0::SimdMisc            0      0.00%     49.12% # Type of FU issued
system.switch_cpus.iq.FU_type_0::SimdMult            0      0.00%     49.12% # Type of FU issued
system.switch_cpus.iq.FU_type_0::SimdMultAcc            0      0.00%     49.12% # Type of FU issued
system.switch_cpus.iq.FU_type_0::SimdShift            0      0.00%     49.12% # Type of FU issued
system.switch_cpus.iq.FU_type_0::SimdShiftAcc            0      0.00%     49.12% # Type of FU issued
system.switch_cpus.iq.FU_type_0::SimdDiv            0      0.00%     49.12% # Type of FU issued
system.switch_cpus.iq.FU_type_0::SimdSqrt            0      0.00%     49.12% # Type of FU issued
system.switch_cpus.iq.FU_type_0::SimdFloatAdd            0      0.00%     49.12% # Type of FU issued
system.switch_cpus.iq.FU_type_0::SimdFloatAlu            0      0.00%     49.12% # Type of FU issued
system.switch_cpus.iq.FU_type_0::SimdFloatCmp            0      0.00%     49.12% # Type of FU issued
system.switch_cpus.iq.FU_type_0::SimdFloatCvt            0      0.00%     49.12% # Type of FU issued
system.switch_cpus.iq.FU_type_0::SimdFloatDiv            0      0.00%     49.12% # Type of FU issued
system.switch_cpus.iq.FU_type_0::SimdFloatMisc            0      0.00%     49.12% # Type of FU issued
system.switch_cpus.iq.FU_type_0::SimdFloatMult            0      0.00%     49.12% # Type of FU issued
system.switch_cpus.iq.FU_type_0::SimdFloatMultAcc            0      0.00%     49.12% # Type of FU issued
system.switch_cpus.iq.FU_type_0::SimdFloatSqrt            0      0.00%     49.12% # Type of FU issued
system.switch_cpus.iq.FU_type_0::SimdReduceAdd            0      0.00%     49.12% # Type of FU issued
system.switch_cpus.iq.FU_type_0::SimdReduceAlu            0      0.00%     49.12% # Type of FU issued
system.switch_cpus.iq.FU_type_0::SimdReduceCmp            0      0.00%     49.12% # Type of FU issued
system.switch_cpus.iq.FU_type_0::SimdFloatReduceAdd            0      0.00%     49.12% # Type of FU issued
system.switch_cpus.iq.FU_type_0::SimdFloatReduceCmp            0      0.00%     49.12% # Type of FU issued
system.switch_cpus.iq.FU_type_0::SimdAes            0      0.00%     49.12% # Type of FU issued
system.switch_cpus.iq.FU_type_0::SimdAesMix            0      0.00%     49.12% # Type of FU issued
system.switch_cpus.iq.FU_type_0::SimdSha1Hash            0      0.00%     49.12% # Type of FU issued
system.switch_cpus.iq.FU_type_0::SimdSha1Hash2            0      0.00%     49.12% # Type of FU issued
system.switch_cpus.iq.FU_type_0::SimdSha256Hash            0      0.00%     49.12% # Type of FU issued
system.switch_cpus.iq.FU_type_0::SimdSha256Hash2            0      0.00%     49.12% # Type of FU issued
system.switch_cpus.iq.FU_type_0::SimdShaSigma2            0      0.00%     49.12% # Type of FU issued
system.switch_cpus.iq.FU_type_0::SimdShaSigma3            0      0.00%     49.12% # Type of FU issued
system.switch_cpus.iq.FU_type_0::SimdPredAlu            0      0.00%     49.12% # Type of FU issued
system.switch_cpus.iq.FU_type_0::MemRead     17205074     49.69%     98.81% # Type of FU issued
system.switch_cpus.iq.FU_type_0::MemWrite       410475      1.19%    100.00% # Type of FU issued
system.switch_cpus.iq.FU_type_0::FloatMemRead            0      0.00%    100.00% # Type of FU issued
system.switch_cpus.iq.FU_type_0::FloatMemWrite            0      0.00%    100.00% # Type of FU issued
system.switch_cpus.iq.FU_type_0::IprAccess            0      0.00%    100.00% # Type of FU issued
system.switch_cpus.iq.FU_type_0::InstPrefetch            0      0.00%    100.00% # Type of FU issued
system.switch_cpus.iq.FU_type_0::total       34623187                       # Type of FU issued
system.switch_cpus.iq.fp_alu_accesses               0                       # Number of floating point alu accesses
system.switch_cpus.iq.fp_inst_queue_reads            0                       # Number of floating instruction queue reads
system.switch_cpus.iq.fp_inst_queue_wakeup_accesses            0                       # Number of floating instruction queue wakeup accesses
system.switch_cpus.iq.fp_inst_queue_writes            0                       # Number of floating instruction queue writes
system.switch_cpus.iq.fu_busy_cnt             2529632                       # FU busy when requested
system.switch_cpus.iq.fu_busy_rate           0.073062                       # FU busy rate (busy events/executed inst)
system.switch_cpus.iq.fu_full::No_OpClass            0      0.00%      0.00% # attempts to use FU when none available
system.switch_cpus.iq.fu_full::IntAlu           87752      3.47%      3.47% # attempts to use FU when none available
system.switch_cpus.iq.fu_full::IntMult              0      0.00%      3.47% # attempts to use FU when none available
system.switch_cpus.iq.fu_full::IntDiv               0      0.00%      3.47% # attempts to use FU when none available
system.switch_cpus.iq.fu_full::FloatAdd             0      0.00%      3.47% # attempts to use FU when none available
system.switch_cpus.iq.fu_full::FloatCmp             0      0.00%      3.47% # attempts to use FU when none available
system.switch_cpus.iq.fu_full::FloatCvt             0      0.00%      3.47% # attempts to use FU when none available
system.switch_cpus.iq.fu_full::FloatMult            0      0.00%      3.47% # attempts to use FU when none available
system.switch_cpus.iq.fu_full::FloatMultAcc            0      0.00%      3.47% # attempts to use FU when none available
system.switch_cpus.iq.fu_full::FloatDiv             0      0.00%      3.47% # attempts to use FU when none available
system.switch_cpus.iq.fu_full::FloatMisc            0      0.00%      3.47% # attempts to use FU when none available
system.switch_cpus.iq.fu_full::FloatSqrt            0      0.00%      3.47% # attempts to use FU when none available
system.switch_cpus.iq.fu_full::SimdAdd              0      0.00%      3.47% # attempts to use FU when none available
system.switch_cpus.iq.fu_full::SimdAddAcc            0      0.00%      3.47% # attempts to use FU when none available
system.switch_cpus.iq.fu_full::SimdAlu              0      0.00%      3.47% # attempts to use FU when none available
system.switch_cpus.iq.fu_full::SimdCmp              0      0.00%      3.47% # attempts to use FU when none available
system.switch_cpus.iq.fu_full::SimdCvt              0      0.00%      3.47% # attempts to use FU when none available
system.switch_cpus.iq.fu_full::SimdMisc             0      0.00%      3.47% # attempts to use FU when none available
system.switch_cpus.iq.fu_full::SimdMult             0      0.00%      3.47% # attempts to use FU when none available
system.switch_cpus.iq.fu_full::SimdMultAcc            0      0.00%      3.47% # attempts to use FU when none available
system.switch_cpus.iq.fu_full::SimdShift            0      0.00%      3.47% # attempts to use FU when none available
system.switch_cpus.iq.fu_full::SimdShiftAcc            0      0.00%      3.47% # attempts to use FU when none available
system.switch_cpus.iq.fu_full::SimdDiv              0      0.00%      3.47% # attempts to use FU when none available
system.switch_cpus.iq.fu_full::SimdSqrt             0      0.00%      3.47% # attempts to use FU when none available
system.switch_cpus.iq.fu_full::SimdFloatAdd            0      0.00%      3.47% # attempts to use FU when none available
system.switch_cpus.iq.fu_full::SimdFloatAlu            0      0.00%      3.47% # attempts to use FU when none available
system.switch_cpus.iq.fu_full::SimdFloatCmp            0      0.00%      3.47% # attempts to use FU when none available
system.switch_cpus.iq.fu_full::SimdFloatCvt            0      0.00%      3.47% # attempts to use FU when none available
system.switch_cpus.iq.fu_full::SimdFloatDiv            0      0.00%      3.47% # attempts to use FU when none available
system.switch_cpus.iq.fu_full::SimdFloatMisc            0      0.00%      3.47% # attempts to use FU when none available
system.switch_cpus.iq.fu_full::SimdFloatMult            0      0.00%      3.47% # attempts to use FU when none available
system.switch_cpus.iq.fu_full::SimdFloatMultAcc            0      0.00%      3.47% # attempts to use FU when none available
system.switch_cpus.iq.fu_full::SimdFloatSqrt            0      0.00%      3.47% # attempts to use FU when none available
system.switch_cpus.iq.fu_full::SimdReduceAdd            0      0.00%      3.47% # attempts to use FU when none available
system.switch_cpus.iq.fu_full::SimdReduceAlu            0      0.00%      3.47% # attempts to use FU when none available
system.switch_cpus.iq.fu_full::SimdReduceCmp            0      0.00%      3.47% # attempts to use FU when none available
system.switch_cpus.iq.fu_full::SimdFloatReduceAdd            0      0.00%      3.47% # attempts to use FU when none available
system.switch_cpus.iq.fu_full::SimdFloatReduceCmp            0      0.00%      3.47% # attempts to use FU when none available
system.switch_cpus.iq.fu_full::SimdAes              0      0.00%      3.47% # attempts to use FU when none available
system.switch_cpus.iq.fu_full::SimdAesMix            0      0.00%      3.47% # attempts to use FU when none available
system.switch_cpus.iq.fu_full::SimdSha1Hash            0      0.00%      3.47% # attempts to use FU when none available
system.switch_cpus.iq.fu_full::SimdSha1Hash2            0      0.00%      3.47% # attempts to use FU when none available
system.switch_cpus.iq.fu_full::SimdSha256Hash            0      0.00%      3.47% # attempts to use FU when none available
system.switch_cpus.iq.fu_full::SimdSha256Hash2            0      0.00%      3.47% # attempts to use FU when none available
system.switch_cpus.iq.fu_full::SimdShaSigma2            0      0.00%      3.47% # attempts to use FU when none available
system.switch_cpus.iq.fu_full::SimdShaSigma3            0      0.00%      3.47% # attempts to use FU when none available
system.switch_cpus.iq.fu_full::SimdPredAlu            0      0.00%      3.47% # attempts to use FU when none available
system.switch_cpus.iq.fu_full::MemRead        2424436     95.84%     99.31% # attempts to use FU when none available
system.switch_cpus.iq.fu_full::MemWrite         17444      0.69%    100.00% # attempts to use FU when none available
system.switch_cpus.iq.fu_full::FloatMemRead            0      0.00%    100.00% # attempts to use FU when none available
system.switch_cpus.iq.fu_full::FloatMemWrite            0      0.00%    100.00% # attempts to use FU when none available
system.switch_cpus.iq.fu_full::IprAccess            0      0.00%    100.00% # attempts to use FU when none available
system.switch_cpus.iq.fu_full::InstPrefetch            0      0.00%    100.00% # attempts to use FU when none available
system.switch_cpus.iq.int_alu_accesses       37053161                       # Number of integer alu accesses
system.switch_cpus.iq.int_inst_queue_reads    139191239                       # Number of integer instruction queue reads
system.switch_cpus.iq.int_inst_queue_wakeup_accesses     21364534                       # Number of integer instruction queue wakeup accesses
system.switch_cpus.iq.int_inst_queue_writes     30965610                       # Number of integer instruction queue writes
system.switch_cpus.iq.iqInstsAdded           24264682                       # Number of instructions added to the IQ (excludes non-spec)
system.switch_cpus.iq.iqInstsIssued          34623187                       # Number of instructions issued
system.switch_cpus.iq.iqSquashedInstsExamined      6700356                       # Number of squashed instructions iterated over during squash; mainly for profiling
system.switch_cpus.iq.iqSquashedInstsIssued       141590                       # Number of squashed instructions issued
system.switch_cpus.iq.iqSquashedOperandsExamined     10029981                       # Number of squashed operands that are examined and possibly removed from graph
system.switch_cpus.iq.issued_per_cycle::samples     67273643                       # Number of insts issued each cycle
system.switch_cpus.iq.issued_per_cycle::mean     0.514662                       # Number of insts issued each cycle
system.switch_cpus.iq.issued_per_cycle::stdev     1.358885                       # Number of insts issued each cycle
system.switch_cpus.iq.issued_per_cycle::underflows            0      0.00%      0.00% # Number of insts issued each cycle
system.switch_cpus.iq.issued_per_cycle::0     55691266     82.78%     82.78% # Number of insts issued each cycle
system.switch_cpus.iq.issued_per_cycle::1      3657733      5.44%     88.22% # Number of insts issued each cycle
system.switch_cpus.iq.issued_per_cycle::2      1774316      2.64%     90.86% # Number of insts issued each cycle
system.switch_cpus.iq.issued_per_cycle::3      1373791      2.04%     92.90% # Number of insts issued each cycle
system.switch_cpus.iq.issued_per_cycle::4      2323684      3.45%     96.35% # Number of insts issued each cycle
system.switch_cpus.iq.issued_per_cycle::5      1230134      1.83%     98.18% # Number of insts issued each cycle
system.switch_cpus.iq.issued_per_cycle::6       857392      1.27%     99.46% # Number of insts issued each cycle
system.switch_cpus.iq.issued_per_cycle::7       216925      0.32%     99.78% # Number of insts issued each cycle
system.switch_cpus.iq.issued_per_cycle::8       148402      0.22%    100.00% # Number of insts issued each cycle
system.switch_cpus.iq.issued_per_cycle::overflows            0      0.00%    100.00% # Number of insts issued each cycle
system.switch_cpus.iq.issued_per_cycle::min_value            0                       # Number of insts issued each cycle
system.switch_cpus.iq.issued_per_cycle::max_value            8                       # Number of insts issued each cycle
system.switch_cpus.iq.issued_per_cycle::total     67273643                       # Number of insts issued each cycle
system.switch_cpus.iq.rate                   0.514627                       # Inst issue rate
system.switch_cpus.iq.vec_alu_accesses              0                       # Number of vector alu accesses
system.switch_cpus.iq.vec_inst_queue_reads            0                       # Number of vector instruction queue reads
system.switch_cpus.iq.vec_inst_queue_wakeup_accesses            0                       # Number of vector instruction queue wakeup accesses
system.switch_cpus.iq.vec_inst_queue_writes            0                       # Number of vector instruction queue writes
system.switch_cpus.itb.rdAccesses                   0                       # TLB accesses on read requests
system.switch_cpus.itb.rdMisses                     0                       # TLB misses on read requests
system.switch_cpus.itb.wrAccesses              904158                       # TLB accesses on write requests
system.switch_cpus.itb.wrMisses                    57                       # TLB misses on write requests
system.switch_cpus.memDep0.conflictingLoads       207634                       # Number of conflicting loads.
system.switch_cpus.memDep0.conflictingStores       179162                       # Number of conflicting stores.
system.switch_cpus.memDep0.insertedLoads      5126133                       # Number of loads inserted to the mem dependence unit.
system.switch_cpus.memDep0.insertedStores       584001                       # Number of stores inserted to the mem dependence unit.
system.switch_cpus.misc_regfile_reads        24214595                       # number of misc regfile reads
system.switch_cpus.misc_regfile_writes              1                       # number of misc regfile writes
system.switch_cpus.numCycles                 67278163                       # number of cpu cycles simulated
system.switch_cpus.numWorkItemsCompleted            0                       # number of work items this cpu completed
system.switch_cpus.numWorkItemsStarted              0                       # number of work items this cpu started
system.switch_cpus.rename.BlockCycles        34969413                       # Number of cycles rename is blocking
system.switch_cpus.rename.CommittedMaps      22614520                       # Number of HB maps that are committed
system.switch_cpus.rename.IQFullEvents        9295754                       # Number of times rename has blocked due to IQ full
system.switch_cpus.rename.IdleCycles          1794318                       # Number of cycles rename is idle
system.switch_cpus.rename.LQFullEvents       24599457                       # Number of times rename has blocked due to LQ full
system.switch_cpus.rename.ROBFullEvents        143612                       # Number of times rename has blocked due to ROB full
system.switch_cpus.rename.RenameLookups      67995665                       # Number of register rename lookups that rename has made
system.switch_cpus.rename.RenamedInsts       25700402                       # Number of instructions processed by rename
system.switch_cpus.rename.RenamedOperands     32341405                       # Number of destination operands rename has renamed
system.switch_cpus.rename.RunCycles           2824260                       # Number of cycles rename is running
system.switch_cpus.rename.SQFullEvents          58719                       # Number of times rename has blocked due to SQ full
system.switch_cpus.rename.SquashCycles         176271                       # Number of cycles rename is squashing
system.switch_cpus.rename.UnblockCycles      27507595                       # Number of cycles rename is unblocking
system.switch_cpus.rename.UndoneMaps          9726725                       # Number of HB maps that are undone due to squashing
system.switch_cpus.rename.int_rename_lookups     34748657                       # Number of integer rename lookups
system.switch_cpus.rename.serializeStallCycles         1779                       # count of cycles rename stalled for serializing inst
system.switch_cpus.rename.serializingInsts         2096                       # count of serializing insts renamed
system.switch_cpus.rename.skidInsts           9372145                       # count of insts added to the skid buffer
system.switch_cpus.rename.tempSerializingInsts         2088                       # count of temporary serializing insts renamed
system.switch_cpus.rob.rob_reads             89154038                       # The number of ROB reads
system.switch_cpus.rob.rob_writes            49591132                       # The number of ROB writes
system.switch_cpus.timesIdled                      46                       # Number of times that the entire CPU went into an idle state and unscheduled itself
system.tol2bus.snoop_filter.hit_multi_requests            0                       # Number of requests hitting in the snoop filter with multiple (>1) holders of the requested data.
system.tol2bus.snoop_filter.hit_multi_snoops            0                       # Number of snoops hitting in the snoop filter with multiple (>1) holders of the requested data.
system.tol2bus.snoop_filter.hit_single_requests      1417457                       # Number of requests hitting in the snoop filter with a single holder of the requested data.
system.tol2bus.snoop_filter.hit_single_snoops       929850                       # Number of snoops hitting in the snoop filter with a single holder of the requested data.
system.tol2bus.snoop_filter.tot_requests      2836004                       # Total number of requests made to the snoop filter.
system.tol2bus.snoop_filter.tot_snoops         929850                       # Total number of snoops made to the snoop filter.
system.membus.pwrStateResidencyTicks::UNDEFINED 190184173361500                       # Cumulative time (in ticks) in various power states
system.membus.trans_dist::ReadResp            1035389                       # Transaction distribution
system.membus.trans_dist::WritebackDirty        46189                       # Transaction distribution
system.membus.trans_dist::CleanEvict           990747                       # Transaction distribution
system.membus.trans_dist::ReadExReq              3894                       # Transaction distribution
system.membus.trans_dist::ReadExResp             3894                       # Transaction distribution
system.membus.trans_dist::ReadSharedReq       1035392                       # Transaction distribution
system.membus.pkt_count_system.l2.mem_side::system.mem_ctrls.port      3115505                       # Packet count per connected master and slave (bytes)
system.membus.pkt_count_system.l2.mem_side::total      3115505                       # Packet count per connected master and slave (bytes)
system.membus.pkt_count::total                3115505                       # Packet count per connected master and slave (bytes)
system.membus.pkt_size_system.l2.mem_side::system.mem_ctrls.port     69470208                       # Cumulative packet size per connected master and slave (bytes)
system.membus.pkt_size_system.l2.mem_side::total     69470208                       # Cumulative packet size per connected master and slave (bytes)
system.membus.pkt_size::total                69470208                       # Cumulative packet size per connected master and slave (bytes)
system.membus.snoops                                0                       # Total snoops (count)
system.membus.snoopTraffic                          0                       # Total snoop traffic (bytes)
system.membus.snoop_fanout::samples           1039286                       # Request fanout histogram
system.membus.snoop_fanout::mean                    0                       # Request fanout histogram
system.membus.snoop_fanout::stdev                   0                       # Request fanout histogram
system.membus.snoop_fanout::underflows              0      0.00%      0.00% # Request fanout histogram
system.membus.snoop_fanout::0                 1039286    100.00%    100.00% # Request fanout histogram
system.membus.snoop_fanout::1                       0      0.00%    100.00% # Request fanout histogram
system.membus.snoop_fanout::overflows               0      0.00%    100.00% # Request fanout histogram
system.membus.snoop_fanout::min_value               0                       # Request fanout histogram
system.membus.snoop_fanout::max_value               0                       # Request fanout histogram
system.membus.snoop_fanout::total             1039286                       # Request fanout histogram
system.membus.reqLayer2.occupancy          2425126500                       # Layer occupancy (ticks)
system.membus.reqLayer2.utilization               7.2                       # Layer utilization (%)
system.membus.respLayer1.occupancy         5825755250                       # Layer occupancy (ticks)
system.membus.respLayer1.utilization             17.3                       # Layer utilization (%)
system.switch_cpus.pwrStateResidencyTicks::OFF  33639092750                       # Cumulative time (in ticks) in various power states
system.switch_cpus.dtb.walker.pwrStateResidencyTicks::UNDEFINED 190184173361500                       # Cumulative time (in ticks) in various power states
system.switch_cpus.itb.walker.pwrStateResidencyTicks::UNDEFINED 190184173361500                       # Cumulative time (in ticks) in various power states
system.tol2bus.pwrStateResidencyTicks::UNDEFINED 190184173361500                       # Cumulative time (in ticks) in various power states
system.tol2bus.trans_dist::ReadResp           1410579                       # Transaction distribution
system.tol2bus.trans_dist::WritebackDirty       223922                       # Transaction distribution
system.tol2bus.trans_dist::CleanEvict         2274113                       # Transaction distribution
system.tol2bus.trans_dist::ReadExReq             7964                       # Transaction distribution
system.tol2bus.trans_dist::ReadExResp            7964                       # Transaction distribution
system.tol2bus.trans_dist::ReadCleanReq            62                       # Transaction distribution
system.tol2bus.trans_dist::ReadSharedReq      1410521                       # Transaction distribution
system.tol2bus.pkt_count_system.cpu.icache.mem_side::system.l2.cpu_side          124                       # Packet count per connected master and slave (bytes)
system.tol2bus.pkt_count_system.cpu.dcache.mem_side::system.l2.cpu_side      4254423                       # Packet count per connected master and slave (bytes)
system.tol2bus.pkt_count::total               4254547                       # Packet count per connected master and slave (bytes)
system.tol2bus.pkt_size_system.cpu.icache.mem_side::system.l2.cpu_side         3968                       # Cumulative packet size per connected master and slave (bytes)
system.tol2bus.pkt_size_system.cpu.dcache.mem_side::system.l2.cpu_side    102157696                       # Cumulative packet size per connected master and slave (bytes)
system.tol2bus.pkt_size::total              102161664                       # Cumulative packet size per connected master and slave (bytes)
system.tol2bus.snoops                         1080578                       # Total snoops (count)
system.tol2bus.snoopTraffic                   2956096                       # Total snoop traffic (bytes)
system.tol2bus.snoop_fanout::samples          2499125                       # Request fanout histogram
system.tol2bus.snoop_fanout::mean            0.372070                       # Request fanout histogram
system.tol2bus.snoop_fanout::stdev           0.483357                       # Request fanout histogram
system.tol2bus.snoop_fanout::underflows             0      0.00%      0.00% # Request fanout histogram
system.tol2bus.snoop_fanout::0                1569275     62.79%     62.79% # Request fanout histogram
system.tol2bus.snoop_fanout::1                 929850     37.21%    100.00% # Request fanout histogram
system.tol2bus.snoop_fanout::2                      0      0.00%    100.00% # Request fanout histogram
system.tol2bus.snoop_fanout::3                      0      0.00%    100.00% # Request fanout histogram
system.tol2bus.snoop_fanout::4                      0      0.00%    100.00% # Request fanout histogram
system.tol2bus.snoop_fanout::overflows              0      0.00%    100.00% # Request fanout histogram
system.tol2bus.snoop_fanout::min_value              0                       # Request fanout histogram
system.tol2bus.snoop_fanout::max_value              1                       # Request fanout histogram
system.tol2bus.snoop_fanout::total            2499125                       # Request fanout histogram
system.tol2bus.reqLayer0.occupancy         1595733500                       # Layer occupancy (ticks)
system.tol2bus.reqLayer0.utilization              4.7                       # Layer utilization (%)
system.tol2bus.respLayer1.occupancy        2127718500                       # Layer occupancy (ticks)
system.tol2bus.respLayer1.utilization             6.3                       # Layer utilization (%)
system.tol2bus.respLayer0.occupancy             91500                       # Layer occupancy (ticks)
system.tol2bus.respLayer0.utilization             0.0                       # Layer utilization (%)
system.voltage_domain.voltage                       1                       # Voltage in Volts
system.clk_domain.clock                          1000                       # Clock period in ticks
system.l2.pwrStateResidencyTicks::UNDEFINED 190184173361500                       # Cumulative time (in ticks) in various power states
system.l2.demand_hits::.switch_cpus.data       379261                       # number of demand (read+write) hits
system.l2.demand_hits::total                   379261                       # number of demand (read+write) hits
system.l2.overall_hits::.switch_cpus.data       379261                       # number of overall hits
system.l2.overall_hits::total                  379261                       # number of overall hits
system.l2.demand_misses::.cpu.inst                  1                       # number of demand (read+write) misses
system.l2.demand_misses::.cpu.data                  2                       # number of demand (read+write) misses
system.l2.demand_misses::.switch_cpus.inst           61                       # number of demand (read+write) misses
system.l2.demand_misses::.switch_cpus.data      1039222                       # number of demand (read+write) misses
system.l2.demand_misses::total                1039286                       # number of demand (read+write) misses
system.l2.overall_misses::.cpu.inst                 1                       # number of overall misses
system.l2.overall_misses::.cpu.data                 2                       # number of overall misses
system.l2.overall_misses::.switch_cpus.inst           61                       # number of overall misses
system.l2.overall_misses::.switch_cpus.data      1039222                       # number of overall misses
system.l2.overall_misses::total               1039286                       # number of overall misses
system.l2.demand_miss_latency::.switch_cpus.inst      5516500                       # number of demand (read+write) miss cycles
system.l2.demand_miss_latency::.switch_cpus.data 105368766000                       # number of demand (read+write) miss cycles
system.l2.demand_miss_latency::total     105374282500                       # number of demand (read+write) miss cycles
system.l2.overall_miss_latency::.switch_cpus.inst      5516500                       # number of overall miss cycles
system.l2.overall_miss_latency::.switch_cpus.data 105368766000                       # number of overall miss cycles
system.l2.overall_miss_latency::total    105374282500                       # number of overall miss cycles
system.l2.demand_accesses::.cpu.inst                1                       # number of demand (read+write) accesses
system.l2.demand_accesses::.cpu.data                2                       # number of demand (read+write) accesses
system.l2.demand_accesses::.switch_cpus.inst           61                       # number of demand (read+write) accesses
system.l2.demand_accesses::.switch_cpus.data      1418483                       # number of demand (read+write) accesses
system.l2.demand_accesses::total              1418547                       # number of demand (read+write) accesses
system.l2.overall_accesses::.cpu.inst               1                       # number of overall (read+write) accesses
system.l2.overall_accesses::.cpu.data               2                       # number of overall (read+write) accesses
system.l2.overall_accesses::.switch_cpus.inst           61                       # number of overall (read+write) accesses
system.l2.overall_accesses::.switch_cpus.data      1418483                       # number of overall (read+write) accesses
system.l2.overall_accesses::total             1418547                       # number of overall (read+write) accesses
system.l2.demand_miss_rate::.cpu.inst               1                       # miss rate for demand accesses
system.l2.demand_miss_rate::.cpu.data               1                       # miss rate for demand accesses
system.l2.demand_miss_rate::.switch_cpus.inst            1                       # miss rate for demand accesses
system.l2.demand_miss_rate::.switch_cpus.data     0.732629                       # miss rate for demand accesses
system.l2.demand_miss_rate::total            0.732641                       # miss rate for demand accesses
system.l2.overall_miss_rate::.cpu.inst              1                       # miss rate for overall accesses
system.l2.overall_miss_rate::.cpu.data              1                       # miss rate for overall accesses
system.l2.overall_miss_rate::.switch_cpus.inst            1                       # miss rate for overall accesses
system.l2.overall_miss_rate::.switch_cpus.data     0.732629                       # miss rate for overall accesses
system.l2.overall_miss_rate::total           0.732641                       # miss rate for overall accesses
system.l2.demand_avg_miss_latency::.switch_cpus.inst 90434.426230                       # average overall miss latency
system.l2.demand_avg_miss_latency::.switch_cpus.data 101391.970147                       # average overall miss latency
system.l2.demand_avg_miss_latency::total 101391.034325                       # average overall miss latency
system.l2.overall_avg_miss_latency::.switch_cpus.inst 90434.426230                       # average overall miss latency
system.l2.overall_avg_miss_latency::.switch_cpus.data 101391.970147                       # average overall miss latency
system.l2.overall_avg_miss_latency::total 101391.034325                       # average overall miss latency
system.l2.blocked_cycles::no_mshrs                  0                       # number of cycles access was blocked
system.l2.blocked_cycles::no_targets                0                       # number of cycles access was blocked
system.l2.blocked::no_mshrs                         0                       # number of cycles access was blocked
system.l2.blocked::no_targets                       0                       # number of cycles access was blocked
system.l2.avg_blocked_cycles::no_mshrs            nan                       # average number of cycles each access was blocked
system.l2.avg_blocked_cycles::no_targets          nan                       # average number of cycles each access was blocked
system.l2.writebacks::.writebacks               46189                       # number of writebacks
system.l2.writebacks::total                     46189                       # number of writebacks
system.l2.demand_mshr_misses::.switch_cpus.inst           61                       # number of demand (read+write) MSHR misses
system.l2.demand_mshr_misses::.switch_cpus.data      1039222                       # number of demand (read+write) MSHR misses
system.l2.demand_mshr_misses::total           1039283                       # number of demand (read+write) MSHR misses
system.l2.overall_mshr_misses::.switch_cpus.inst           61                       # number of overall MSHR misses
system.l2.overall_mshr_misses::.switch_cpus.data      1039222                       # number of overall MSHR misses
system.l2.overall_mshr_misses::total          1039283                       # number of overall MSHR misses
system.l2.demand_mshr_miss_latency::.switch_cpus.inst      4906500                       # number of demand (read+write) MSHR miss cycles
system.l2.demand_mshr_miss_latency::.switch_cpus.data  94976576000                       # number of demand (read+write) MSHR miss cycles
system.l2.demand_mshr_miss_latency::total  94981482500                       # number of demand (read+write) MSHR miss cycles
system.l2.overall_mshr_miss_latency::.switch_cpus.inst      4906500                       # number of overall MSHR miss cycles
system.l2.overall_mshr_miss_latency::.switch_cpus.data  94976576000                       # number of overall MSHR miss cycles
system.l2.overall_mshr_miss_latency::total  94981482500                       # number of overall MSHR miss cycles
system.l2.demand_mshr_miss_rate::.switch_cpus.inst            1                       # mshr miss rate for demand accesses
system.l2.demand_mshr_miss_rate::.switch_cpus.data     0.732629                       # mshr miss rate for demand accesses
system.l2.demand_mshr_miss_rate::total       0.732639                       # mshr miss rate for demand accesses
system.l2.overall_mshr_miss_rate::.switch_cpus.inst            1                       # mshr miss rate for overall accesses
system.l2.overall_mshr_miss_rate::.switch_cpus.data     0.732629                       # mshr miss rate for overall accesses
system.l2.overall_mshr_miss_rate::total      0.732639                       # mshr miss rate for overall accesses
system.l2.demand_avg_mshr_miss_latency::.switch_cpus.inst 80434.426230                       # average overall mshr miss latency
system.l2.demand_avg_mshr_miss_latency::.switch_cpus.data 91391.999015                       # average overall mshr miss latency
system.l2.demand_avg_mshr_miss_latency::total 91391.355867                       # average overall mshr miss latency
system.l2.overall_avg_mshr_miss_latency::.switch_cpus.inst 80434.426230                       # average overall mshr miss latency
system.l2.overall_avg_mshr_miss_latency::.switch_cpus.data 91391.999015                       # average overall mshr miss latency
system.l2.overall_avg_mshr_miss_latency::total 91391.355867                       # average overall mshr miss latency
system.l2.replacements                        1080578                       # number of replacements
system.l2.WritebackDirty_hits::.writebacks       177733                       # number of WritebackDirty hits
system.l2.WritebackDirty_hits::total           177733                       # number of WritebackDirty hits
system.l2.WritebackDirty_accesses::.writebacks       177733                       # number of WritebackDirty accesses(hits+misses)
system.l2.WritebackDirty_accesses::total       177733                       # number of WritebackDirty accesses(hits+misses)
system.l2.CleanEvict_mshr_misses::.writebacks       886208                       # number of CleanEvict MSHR misses
system.l2.CleanEvict_mshr_misses::total        886208                       # number of CleanEvict MSHR misses
system.l2.CleanEvict_mshr_miss_rate::.writebacks          inf                       # mshr miss rate for CleanEvict accesses
system.l2.CleanEvict_mshr_miss_rate::total          inf                       # mshr miss rate for CleanEvict accesses
system.l2.ReadExReq_hits::.switch_cpus.data         4070                       # number of ReadExReq hits
system.l2.ReadExReq_hits::total                  4070                       # number of ReadExReq hits
system.l2.ReadExReq_misses::.switch_cpus.data         3894                       # number of ReadExReq misses
system.l2.ReadExReq_misses::total                3894                       # number of ReadExReq misses
system.l2.ReadExReq_miss_latency::.switch_cpus.data    332051000                       # number of ReadExReq miss cycles
system.l2.ReadExReq_miss_latency::total     332051000                       # number of ReadExReq miss cycles
system.l2.ReadExReq_accesses::.switch_cpus.data         7964                       # number of ReadExReq accesses(hits+misses)
system.l2.ReadExReq_accesses::total              7964                       # number of ReadExReq accesses(hits+misses)
system.l2.ReadExReq_miss_rate::.switch_cpus.data     0.488950                       # miss rate for ReadExReq accesses
system.l2.ReadExReq_miss_rate::total         0.488950                       # miss rate for ReadExReq accesses
system.l2.ReadExReq_avg_miss_latency::.switch_cpus.data 85272.470467                       # average ReadExReq miss latency
system.l2.ReadExReq_avg_miss_latency::total 85272.470467                       # average ReadExReq miss latency
system.l2.ReadExReq_mshr_misses::.switch_cpus.data         3894                       # number of ReadExReq MSHR misses
system.l2.ReadExReq_mshr_misses::total           3894                       # number of ReadExReq MSHR misses
system.l2.ReadExReq_mshr_miss_latency::.switch_cpus.data    293111000                       # number of ReadExReq MSHR miss cycles
system.l2.ReadExReq_mshr_miss_latency::total    293111000                       # number of ReadExReq MSHR miss cycles
system.l2.ReadExReq_mshr_miss_rate::.switch_cpus.data     0.488950                       # mshr miss rate for ReadExReq accesses
system.l2.ReadExReq_mshr_miss_rate::total     0.488950                       # mshr miss rate for ReadExReq accesses
system.l2.ReadExReq_avg_mshr_miss_latency::.switch_cpus.data 75272.470467                       # average ReadExReq mshr miss latency
system.l2.ReadExReq_avg_mshr_miss_latency::total 75272.470467                       # average ReadExReq mshr miss latency
system.l2.ReadCleanReq_misses::.cpu.inst            1                       # number of ReadCleanReq misses
system.l2.ReadCleanReq_misses::.switch_cpus.inst           61                       # number of ReadCleanReq misses
system.l2.ReadCleanReq_misses::total               62                       # number of ReadCleanReq misses
system.l2.ReadCleanReq_miss_latency::.switch_cpus.inst      5516500                       # number of ReadCleanReq miss cycles
system.l2.ReadCleanReq_miss_latency::total      5516500                       # number of ReadCleanReq miss cycles
system.l2.ReadCleanReq_accesses::.cpu.inst            1                       # number of ReadCleanReq accesses(hits+misses)
system.l2.ReadCleanReq_accesses::.switch_cpus.inst           61                       # number of ReadCleanReq accesses(hits+misses)
system.l2.ReadCleanReq_accesses::total             62                       # number of ReadCleanReq accesses(hits+misses)
system.l2.ReadCleanReq_miss_rate::.cpu.inst            1                       # miss rate for ReadCleanReq accesses
system.l2.ReadCleanReq_miss_rate::.switch_cpus.inst            1                       # miss rate for ReadCleanReq accesses
system.l2.ReadCleanReq_miss_rate::total             1                       # miss rate for ReadCleanReq accesses
system.l2.ReadCleanReq_avg_miss_latency::.switch_cpus.inst 90434.426230                       # average ReadCleanReq miss latency
system.l2.ReadCleanReq_avg_miss_latency::total 88975.806452                       # average ReadCleanReq miss latency
system.l2.ReadCleanReq_mshr_misses::.switch_cpus.inst           61                       # number of ReadCleanReq MSHR misses
system.l2.ReadCleanReq_mshr_misses::total           61                       # number of ReadCleanReq MSHR misses
system.l2.ReadCleanReq_mshr_miss_latency::.switch_cpus.inst      4906500                       # number of ReadCleanReq MSHR miss cycles
system.l2.ReadCleanReq_mshr_miss_latency::total      4906500                       # number of ReadCleanReq MSHR miss cycles
system.l2.ReadCleanReq_mshr_miss_rate::.switch_cpus.inst            1                       # mshr miss rate for ReadCleanReq accesses
system.l2.ReadCleanReq_mshr_miss_rate::total     0.983871                       # mshr miss rate for ReadCleanReq accesses
system.l2.ReadCleanReq_avg_mshr_miss_latency::.switch_cpus.inst 80434.426230                       # average ReadCleanReq mshr miss latency
system.l2.ReadCleanReq_avg_mshr_miss_latency::total 80434.426230                       # average ReadCleanReq mshr miss latency
system.l2.ReadSharedReq_hits::.switch_cpus.data       375191                       # number of ReadSharedReq hits
system.l2.ReadSharedReq_hits::total            375191                       # number of ReadSharedReq hits
system.l2.ReadSharedReq_misses::.cpu.data            2                       # number of ReadSharedReq misses
[...]
system.cpu.icache.tags.age_task_id_blocks_1024::4           62                       # Occupied blocks per task id
system.cpu.icache.tags.occ_task_id_percent::1024     0.121094                       # Percentage of cache occupancy per task id
system.cpu.icache.tags.tag_accesses           2775260                       # Number of tag accesses
system.cpu.icache.tags.data_accesses          2775260                       # Number of data accesses
system.cpu.dtb.walker.pwrStateResidencyTicks::UNDEFINED 190287478904000                       # Cumulative time (in ticks) in various power states
system.cpu.interrupts.clk_domain.clock           8000                       # Clock period in ticks
system.cpu.itb_walker_cache.pwrStateResidencyTicks::UNDEFINED 190287478904000                       # Cumulative time (in ticks) in various power states
system.cpu.itb_walker_cache.blocked_cycles::no_mshrs            0                       # number of cycles access was blocked
system.cpu.itb_walker_cache.blocked_cycles::no_targets            0                       # number of cycles access was blocked
system.cpu.itb_walker_cache.blocked::no_mshrs            0                       # number of cycles access was blocked
system.cpu.itb_walker_cache.blocked::no_targets            0                       # number of cycles access was blocked
system.cpu.itb_walker_cache.avg_blocked_cycles::no_mshrs          nan                       # average number of cycles each access was blocked
system.cpu.itb_walker_cache.avg_blocked_cycles::no_targets          nan                       # average number of cycles each access was blocked
system.cpu.itb_walker_cache.replacements            0                       # number of replacements
system.cpu.itb_walker_cache.tags.pwrStateResidencyTicks::UNDEFINED 190287478904000                       # Cumulative time (in ticks) in various power states
system.cpu.itb_walker_cache.tags.tagsinuse            0                       # Cycle average of tags in use
system.cpu.itb_walker_cache.tags.total_refs            0                       # Total number of references to valid blocks.
system.cpu.itb_walker_cache.tags.sampled_refs            0                       # Sample count of references to valid blocks.
system.cpu.itb_walker_cache.tags.avg_refs          nan                       # Average number of references to valid blocks.
system.cpu.itb_walker_cache.tags.warmup_cycle            0                       # Cycle when the warmup percentage was hit.
system.cpu.itb_walker_cache.tags.tag_accesses            0                       # Number of tag accesses
system.cpu.itb_walker_cache.tags.data_accesses            0                       # Number of data accesses
system.cpu.itb.walker.pwrStateResidencyTicks::UNDEFINED 190287478904000                       # Cumulative time (in ticks) in various power states
system.cpu.dtb_walker_cache.pwrStateResidencyTicks::UNDEFINED 190287478904000                       # Cumulative time (in ticks) in various power states
system.cpu.dtb_walker_cache.blocked_cycles::no_mshrs            0                       # number of cycles access was blocked
system.cpu.dtb_walker_cache.blocked_cycles::no_targets            0                       # number of cycles access was blocked
system.cpu.dtb_walker_cache.blocked::no_mshrs            0                       # number of cycles access was blocked
system.cpu.dtb_walker_cache.blocked::no_targets            0                       # number of cycles access was blocked
system.cpu.dtb_walker_cache.avg_blocked_cycles::no_mshrs          nan                       # average number of cycles each access was blocked
system.cpu.dtb_walker_cache.avg_blocked_cycles::no_targets          nan                       # average number of cycles each access was blocked
system.cpu.dtb_walker_cache.replacements            0                       # number of replacements
system.cpu.dtb_walker_cache.tags.pwrStateResidencyTicks::UNDEFINED 190287478904000                       # Cumulative time (in ticks) in various power states
system.cpu.dtb_walker_cache.tags.tagsinuse            0                       # Cycle average of tags in use
system.cpu.dtb_walker_cache.tags.total_refs            0                       # Total number of references to valid blocks.
system.cpu.dtb_walker_cache.tags.sampled_refs            0                       # Sample count of references to valid blocks.
system.cpu.dtb_walker_cache.tags.avg_refs          nan                       # Average number of references to valid blocks.
system.cpu.dtb_walker_cache.tags.warmup_cycle            0                       # Cycle when the warmup percentage was hit.
system.cpu.dtb_walker_cache.tags.tag_accesses            0                       # Number of tag accesses
system.cpu.dtb_walker_cache.tags.data_accesses            0                       # Number of data accesses
system.cpu.dcache.pwrStateResidencyTicks::UNDEFINED 190287478904000                       # Cumulative time (in ticks) in various power states
system.cpu.dcache.demand_hits::.switch_cpus.data      4630081                       # number of demand (read+write) hits
system.cpu.dcache.demand_hits::total          4630081                       # number of demand (read+write) hits
system.cpu.dcache.overall_hits::.switch_cpus.data      4630081                       # number of overall hits
system.cpu.dcache.overall_hits::total         4630081                       # number of overall hits
system.cpu.dcache.demand_misses::.cpu.data            2                       # number of demand (read+write) misses
system.cpu.dcache.demand_misses::.switch_cpus.data     13234111                       # number of demand (read+write) misses
system.cpu.dcache.demand_misses::total       13234113                       # number of demand (read+write) misses
system.cpu.dcache.overall_misses::.cpu.data            2                       # number of overall misses
system.cpu.dcache.overall_misses::.switch_cpus.data     13234111                       # number of overall misses
system.cpu.dcache.overall_misses::total      13234113                       # number of overall misses
system.cpu.dcache.demand_miss_latency::.switch_cpus.data 953909511910                       # number of demand (read+write) miss cycles
system.cpu.dcache.demand_miss_latency::total 953909511910                       # number of demand (read+write) miss cycles
system.cpu.dcache.overall_miss_latency::.switch_cpus.data 953909511910                       # number of overall miss cycles
system.cpu.dcache.overall_miss_latency::total 953909511910                       # number of overall miss cycles
system.cpu.dcache.demand_accesses::.cpu.data            2                       # number of demand (read+write) accesses
system.cpu.dcache.demand_accesses::.switch_cpus.data     17864192                       # number of demand (read+write) accesses
system.cpu.dcache.demand_accesses::total     17864194                       # number of demand (read+write) accesses
system.cpu.dcache.overall_accesses::.cpu.data            2                       # number of overall (read+write) accesses
system.cpu.dcache.overall_accesses::.switch_cpus.data     17864192                       # number of overall (read+write) accesses
system.cpu.dcache.overall_accesses::total     17864194                       # number of overall (read+write) accesses
system.cpu.dcache.demand_miss_rate::.cpu.data            1                       # miss rate for demand accesses
system.cpu.dcache.demand_miss_rate::.switch_cpus.data     0.740818                       # miss rate for demand accesses
system.cpu.dcache.demand_miss_rate::total     0.740818                       # miss rate for demand accesses
system.cpu.dcache.overall_miss_rate::.cpu.data            1                       # miss rate for overall accesses
system.cpu.dcache.overall_miss_rate::.switch_cpus.data     0.740818                       # miss rate for overall accesses
system.cpu.dcache.overall_miss_rate::total     0.740818                       # miss rate for overall accesses
system.cpu.dcache.demand_avg_miss_latency::.switch_cpus.data 72079.606398                       # average overall miss latency
system.cpu.dcache.demand_avg_miss_latency::total 72079.595505                       # average overall miss latency
system.cpu.dcache.overall_avg_miss_latency::.switch_cpus.data 72079.606398                       # average overall miss latency
system.cpu.dcache.overall_avg_miss_latency::total 72079.595505                       # average overall miss latency
system.cpu.dcache.blocked_cycles::no_mshrs    234758442                       # number of cycles access was blocked
system.cpu.dcache.blocked_cycles::no_targets          213                       # number of cycles access was blocked
system.cpu.dcache.blocked::no_mshrs           6288059                       # number of cycles access was blocked
system.cpu.dcache.blocked::no_targets               3                       # number of cycles access was blocked
system.cpu.dcache.avg_blocked_cycles::no_mshrs    37.334008                       # average number of cycles each access was blocked
system.cpu.dcache.avg_blocked_cycles::no_targets           71                       # average number of cycles each access was blocked
system.cpu.dcache.writebacks::.writebacks       449775                       # number of writebacks
system.cpu.dcache.writebacks::total            449775                       # number of writebacks
system.cpu.dcache.demand_mshr_hits::.switch_cpus.data      6661166                       # number of demand (read+write) MSHR hits
system.cpu.dcache.demand_mshr_hits::total      6661166                       # number of demand (read+write) MSHR hits
system.cpu.dcache.overall_mshr_hits::.switch_cpus.data      6661166                       # number of overall MSHR hits
system.cpu.dcache.overall_mshr_hits::total      6661166                       # number of overall MSHR hits
system.cpu.dcache.demand_mshr_misses::.switch_cpus.data      6572945                       # number of demand (read+write) MSHR misses
system.cpu.dcache.demand_mshr_misses::total      6572945                       # number of demand (read+write) MSHR misses
system.cpu.dcache.overall_mshr_misses::.switch_cpus.data      6572945                       # number of overall MSHR misses
system.cpu.dcache.overall_mshr_misses::total      6572945                       # number of overall MSHR misses
system.cpu.dcache.demand_mshr_miss_latency::.switch_cpus.data 508048955493                       # number of demand (read+write) MSHR miss cycles
system.cpu.dcache.demand_mshr_miss_latency::total 508048955493                       # number of demand (read+write) MSHR miss cycles
system.cpu.dcache.overall_mshr_miss_latency::.switch_cpus.data 508048955493                       # number of overall MSHR miss cycles
system.cpu.dcache.overall_mshr_miss_latency::total 508048955493                       # number of overall MSHR miss cycles
system.cpu.dcache.demand_mshr_miss_rate::.switch_cpus.data     0.367940                       # mshr miss rate for demand accesses
system.cpu.dcache.demand_mshr_miss_rate::total     0.367940                       # mshr miss rate for demand accesses
system.cpu.dcache.overall_mshr_miss_rate::.switch_cpus.data     0.367940                       # mshr miss rate for overall accesses
system.cpu.dcache.overall_mshr_miss_rate::total     0.367940                       # mshr miss rate for overall accesses
system.cpu.dcache.demand_avg_mshr_miss_latency::.switch_cpus.data 77293.961153                       # average overall mshr miss latency
system.cpu.dcache.demand_avg_mshr_miss_latency::total 77293.961153                       # average overall mshr miss latency
system.cpu.dcache.overall_avg_mshr_miss_latency::.switch_cpus.data 77293.961153                       # average overall mshr miss latency
system.cpu.dcache.overall_avg_mshr_miss_latency::total 77293.961153                       # average overall mshr miss latency
system.cpu.dcache.replacements                6571919                       # number of replacements
system.cpu.dcache.ReadReq_hits::.switch_cpus.data      4234104                       # number of ReadReq hits
system.cpu.dcache.ReadReq_hits::total         4234104                       # number of ReadReq hits
system.cpu.dcache.ReadReq_misses::.cpu.data            2                       # number of ReadReq misses
system.cpu.dcache.ReadReq_misses::.switch_cpus.data     13223107                       # number of ReadReq misses
system.cpu.dcache.ReadReq_misses::total      13223109                       # number of ReadReq misses
system.cpu.dcache.ReadReq_miss_latency::.switch_cpus.data 953389357500                       # number of ReadReq miss cycles
system.cpu.dcache.ReadReq_miss_latency::total 953389357500                       # number of ReadReq miss cycles
system.cpu.dcache.ReadReq_accesses::.cpu.data            2                       # number of ReadReq accesses(hits+misses)
system.cpu.dcache.ReadReq_accesses::.switch_cpus.data     17457211                       # number of ReadReq accesses(hits+misses)
system.cpu.dcache.ReadReq_accesses::total     17457213                       # number of ReadReq accesses(hits+misses)
system.cpu.dcache.ReadReq_miss_rate::.cpu.data            1                       # miss rate for ReadReq accesses
system.cpu.dcache.ReadReq_miss_rate::.switch_cpus.data     0.757458                       # miss rate for ReadReq accesses
system.cpu.dcache.ReadReq_miss_rate::total     0.757458                       # miss rate for ReadReq accesses
system.cpu.dcache.ReadReq_avg_miss_latency::.switch_cpus.data 72100.252800                       # average ReadReq miss latency
system.cpu.dcache.ReadReq_avg_miss_latency::total 72100.241895                       # average ReadReq miss latency
system.cpu.dcache.ReadReq_mshr_hits::.switch_cpus.data      6660905                       # number of ReadReq MSHR hits
system.cpu.dcache.ReadReq_mshr_hits::total      6660905                       # number of ReadReq MSHR hits
system.cpu.dcache.ReadReq_mshr_misses::.switch_cpus.data      6562202                       # number of ReadReq MSHR misses
system.cpu.dcache.ReadReq_mshr_misses::total      6562202                       # number of ReadReq MSHR misses
system.cpu.dcache.ReadReq_mshr_miss_latency::.switch_cpus.data 507543571500                       # number of ReadReq MSHR miss cycles
system.cpu.dcache.ReadReq_mshr_miss_latency::total 507543571500                       # number of ReadReq MSHR miss cycles
system.cpu.dcache.ReadReq_mshr_miss_rate::.switch_cpus.data     0.375902                       # mshr miss rate for ReadReq accesses
system.cpu.dcache.ReadReq_mshr_miss_rate::total     0.375902                       # mshr miss rate for ReadReq accesses
system.cpu.dcache.ReadReq_avg_mshr_miss_latency::.switch_cpus.data 77343.484931                       # average ReadReq mshr miss latency
system.cpu.dcache.ReadReq_avg_mshr_miss_latency::total 77343.484931                       # average ReadReq mshr miss latency
system.cpu.dcache.WriteReq_hits::.switch_cpus.data       395977                       # number of WriteReq hits
system.cpu.dcache.WriteReq_hits::total         395977                       # number of WriteReq hits
system.cpu.dcache.WriteReq_misses::.switch_cpus.data        11004                       # number of WriteReq misses
system.cpu.dcache.WriteReq_misses::total        11004                       # number of WriteReq misses
system.cpu.dcache.WriteReq_miss_latency::.switch_cpus.data    520154410                       # number of WriteReq miss cycles
system.cpu.dcache.WriteReq_miss_latency::total    520154410                       # number of WriteReq miss cycles
system.cpu.dcache.WriteReq_accesses::.switch_cpus.data       406981                       # number of WriteReq accesses(hits+misses)
system.cpu.dcache.WriteReq_accesses::total       406981                       # number of WriteReq accesses(hits+misses)
system.cpu.dcache.WriteReq_miss_rate::.switch_cpus.data     0.027038                       # miss rate for WriteReq accesses
system.cpu.dcache.WriteReq_miss_rate::total     0.027038                       # miss rate for WriteReq accesses
system.cpu.dcache.WriteReq_avg_miss_latency::.switch_cpus.data 47269.575609                       # average WriteReq miss latency
system.cpu.dcache.WriteReq_avg_miss_latency::total 47269.575609                       # average WriteReq miss latency
system.cpu.dcache.WriteReq_mshr_hits::.switch_cpus.data          261                       # number of WriteReq MSHR hits
system.cpu.dcache.WriteReq_mshr_hits::total          261                       # number of WriteReq MSHR hits
system.cpu.dcache.WriteReq_mshr_misses::.switch_cpus.data        10743                       # number of WriteReq MSHR misses
system.cpu.dcache.WriteReq_mshr_misses::total        10743                       # number of WriteReq MSHR misses
system.cpu.dcache.WriteReq_mshr_miss_latency::.switch_cpus.data    505383993                       # number of WriteReq MSHR miss cycles
system.cpu.dcache.WriteReq_mshr_miss_latency::total    505383993                       # number of WriteReq MSHR miss cycles
system.cpu.dcache.WriteReq_mshr_miss_rate::.switch_cpus.data     0.026397                       # mshr miss rate for WriteReq accesses
system.cpu.dcache.WriteReq_mshr_miss_rate::total     0.026397                       # mshr miss rate for WriteReq accesses
system.cpu.dcache.WriteReq_avg_mshr_miss_latency::.switch_cpus.data 47043.097180                       # average WriteReq mshr miss latency
system.cpu.dcache.WriteReq_avg_mshr_miss_latency::total 47043.097180                       # average WriteReq mshr miss latency
system.cpu.dcache.tags.pwrStateResidencyTicks::UNDEFINED 190287478904000                       # Cumulative time (in ticks) in various power states
system.cpu.dcache.tags.tagsinuse             0.736848                       # Cycle average of tags in use
system.cpu.dcache.tags.total_refs            11203024                       # Total number of references to valid blocks.
system.cpu.dcache.tags.sampled_refs           6572943                       # Sample count of references to valid blocks.
system.cpu.dcache.tags.avg_refs              1.704415                       # Average number of references to valid blocks.
system.cpu.dcache.tags.warmup_cycle      190150534270000                       # Cycle when the warmup percentage was hit.
system.cpu.dcache.tags.occ_blocks::.cpu.data     0.000000                       # Average occupied blocks per requestor
system.cpu.dcache.tags.occ_blocks::.switch_cpus.data     0.736848                       # Average occupied blocks per requestor
system.cpu.dcache.tags.occ_percent::.cpu.data     0.000000                       # Average percentage of cache occupancy
system.cpu.dcache.tags.occ_percent::.switch_cpus.data     0.000720                       # Average percentage of cache occupancy
system.cpu.dcache.tags.occ_percent::total     0.000720                       # Average percentage of cache occupancy
system.cpu.dcache.tags.occ_task_id_blocks::1024         1024                       # Occupied blocks per task id
system.cpu.dcache.tags.age_task_id_blocks_1024::0          452                       # Occupied blocks per task id
system.cpu.dcache.tags.age_task_id_blocks_1024::1          571                       # Occupied blocks per task id
system.cpu.dcache.tags.age_task_id_blocks_1024::2            1                       # Occupied blocks per task id
system.cpu.dcache.tags.occ_task_id_percent::1024            1                       # Percentage of cache occupancy per task id
system.cpu.dcache.tags.tag_accesses          42301331                       # Number of tag accesses
system.cpu.dcache.tags.data_accesses         42301331                       # Number of data accesses

---------- End Simulation Statistics   ----------
