
---------- Begin Simulation Statistics ----------
final_tick                               371669451858500                       # Number of ticks from beginning of simulation (restored from checkpoints and never reset)
host_inst_rate                                  30994                       # Simulator instruction rate (inst/s)
host_mem_usage                                 897916                       # Number of bytes of host memory used
host_op_rate                                    69348                       # Simulator op (including micro ops) rate (op/s)
host_seconds                                   322.64                       # Real time elapsed on the host
host_tick_rate                               25901768                       # Simulator tick rate (ticks/s)
sim_freq                                 1000000000000                       # Frequency of simulated ticks
sim_insts                                    10000006                       # Number of instructions simulated
sim_ops                                      22374673                       # Number of ops (including micro ops) simulated
sim_seconds                                  0.008357                       # Number of seconds simulated
sim_ticks                                  8356976000                       # Number of ticks simulated
system.cpu.committedInsts                           5                       # Number of instructions committed
system.cpu.committedOps                            17                       # Number of ops (including micro ops) committed
system.cpu.dtb.rdAccesses                           8                       # TLB accesses on read requests
system.cpu.dtb.rdMisses                             0                       # TLB misses on read requests
system.cpu.dtb.wrAccesses                           0                       # TLB accesses on write requests
system.cpu.dtb.wrMisses                             0                       # TLB misses on write requests
system.cpu.idle_fraction                            0                       # Percentage of idle cycles
system.cpu.itb.rdAccesses                           0                       # TLB accesses on read requests
system.cpu.itb.rdMisses                             0                       # TLB misses on read requests
system.cpu.itb.wrAccesses                          10                       # TLB accesses on write requests
system.cpu.itb.wrMisses                             0                       # TLB misses on write requests
system.cpu.not_idle_fraction                        1                       # Percentage of non-idle cycles
system.cpu.numCycles                               22                       # number of cpu cycles simulated
system.cpu.numWorkItemsCompleted                    0                       # number of work items this cpu completed
system.cpu.numWorkItemsStarted                      0                       # number of work items this cpu started
system.cpu.num_busy_cycles                         22                       # Number of busy cycles
system.cpu.num_conditional_control_insts            0                       # number of instructions that are conditional controls
system.cpu.num_fp_alu_accesses                     16                       # Number of float alu accesses
system.cpu.num_fp_insts                            16                       # number of float instructions
system.cpu.num_fp_register_reads                   24                       # number of times the floating registers were read
system.cpu.num_fp_register_writes                  16                       # number of times the floating registers were written
system.cpu.num_func_calls                           0                       # number of times a function call or return occured
system.cpu.num_idle_cycles                          0                       # Number of idle cycles
system.cpu.num_int_alu_accesses                     9                       # Number of integer alu accesses
system.cpu.num_int_insts                            9                       # number of integer instructions
system.cpu.num_int_register_reads                  25                       # number of times the integer registers were read
system.cpu.num_int_register_writes                  1                       # number of times the integer registers were written
system.cpu.num_load_insts                           8                       # Number of load instructions
system.cpu.num_mem_refs                             8                       # number of memory refs
system.cpu.num_store_insts                          0                       # Number of store instructions
system.cpu.num_vec_alu_accesses                     0                       # Number of vector alu accesses
system.cpu.num_vec_insts                            0                       # number of vector instructions
system.cpu.num_vec_register_reads                   0                       # number of times the vector registers were read
system.cpu.num_vec_register_writes                  0                       # number of times the vector registers were written
system.cpu.op_class::No_OpClass                     0      0.00%      0.00% # Class of executed instruction
system.cpu.op_class::IntAlu                         1      5.88%      5.88% # Class of executed instruction
system.cpu.op_class::IntMult                        0      0.00%      5.88% # Class of executed instruction
system.cpu.op_class::IntDiv                         0      0.00%      5.88% # Class of executed instruction
system.cpu.op_class::FloatAdd                       0      0.00%      5.88% # Class of executed instruction
system.cpu.op_class::FloatCmp                       0      0.00%      5.88% # Class of executed instruction
system.cpu.op_class::FloatCvt                       0      0.00%      5.88% # Class of executed instruction
system.cpu.op_class::FloatMult                      0      0.00%      5.88% # Class of executed instruction
system.cpu.op_class::FloatMultAcc                   0      0.00%      5.88% # Class of executed instruction
system.cpu.op_class::FloatDiv                       0      0.00%      5.88% # Class of executed instruction
system.cpu.op_class::FloatMisc                      0      0.00%      5.88% # Class of executed instruction
system.cpu.op_class::FloatSqrt                      0      0.00%      5.88% # Class of executed instruction
system.cpu.op_class::SimdAdd                        0      0.00%      5.88% # Class of executed instruction
system.cpu.op_class::SimdAddAcc                     0      0.00%      5.88% # Class of executed instruction
system.cpu.op_class::SimdAlu                        0      0.00%      5.88% # Class of executed instruction
system.cpu.op_class::SimdCmp                        0      0.00%      5.88% # Class of executed instruction
system.cpu.op_class::SimdCvt                        0      0.00%      5.88% # Class of executed instruction
system.cpu.op_class::SimdMisc                       0      0.00%      5.88% # Class of executed instruction
system.cpu.op_class::SimdMult                       0      0.00%      5.88% # Class of executed instruction
system.cpu.op_class::SimdMultAcc                    0      0.00%      5.88% # Class of executed instruction
system.cpu.op_class::SimdShift                      0      0.00%      5.88% # Class of executed instruction
system.cpu.op_class::SimdShiftAcc                   0      0.00%      5.88% # Class of executed instruction
system.cpu.op_class::SimdDiv                        0      0.00%      5.88% # Class of executed instruction
system.cpu.op_class::SimdSqrt                       0      0.00%      5.88% # Class of executed instruction
system.cpu.op_class::SimdFloatAdd                   4     23.53%     29.41% # Class of executed instruction
system.cpu.op_class::SimdFloatAlu                   0      0.00%     29.41% # Class of executed instruction
system.cpu.op_class::SimdFloatCmp                   0      0.00%     29.41% # Class of executed instruction
system.cpu.op_class::SimdFloatCvt                   0      0.00%     29.41% # Class of executed instruction
system.cpu.op_class::SimdFloatDiv                   0      0.00%     29.41% # Class of executed instruction
system.cpu.op_class::SimdFloatMisc                  0      0.00%     29.41% # Class of executed instruction
system.cpu.op_class::SimdFloatMult                  4     23.53%     52.94% # Class of executed instruction
system.cpu.op_class::SimdFloatMultAcc               0      0.00%     52.94% # Class of executed instruction
system.cpu.op_class::SimdFloatSqrt                  0      0.00%     52.94% # Class of executed instruction
system.cpu.op_class::SimdReduceAdd                  0      0.00%     52.94% # Class of executed instruction
system.cpu.op_class::SimdReduceAlu                  0      0.00%     52.94% # Class of executed instruction
system.cpu.op_class::SimdReduceCmp                  0      0.00%     52.94% # Class of executed instruction
system.cpu.op_class::SimdFloatReduceAdd             0      0.00%     52.94% # Class of executed instruction
system.cpu.op_class::SimdFloatReduceCmp             0      0.00%     52.94% # Class of executed instruction
system.cpu.op_class::SimdAes                        0      0.00%     52.94% # Class of executed instruction
system.cpu.op_class::SimdAesMix                     0      0.00%     52.94% # Class of executed instruction
system.cpu.op_class::SimdSha1Hash                   0      0.00%     52.94% # Class of executed instruction
system.cpu.op_class::SimdSha1Hash2                  0      0.00%     52.94% # Class of executed instruction
system.cpu.op_class::SimdSha256Hash                 0      0.00%     52.94% # Class of executed instruction
system.cpu.op_class::SimdSha256Hash2                0      0.00%     52.94% # Class of executed instruction
system.cpu.op_class::SimdShaSigma2                  0      0.00%     52.94% # Class of executed instruction
system.cpu.op_class::SimdShaSigma3                  0      0.00%     52.94% # Class of executed instruction
system.cpu.op_class::SimdPredAlu                    0      0.00%     52.94% # Class of executed instruction
system.cpu.op_class::MemRead                        0      0.00%     52.94% # Class of executed instruction
system.cpu.op_class::MemWrite                       0      0.00%     52.94% # Class of executed instruction
system.cpu.op_class::FloatMemRead                   8     47.06%    100.00% # Class of executed instruction
system.cpu.op_class::FloatMemWrite                  0      0.00%    100.00% # Class of executed instruction
system.cpu.op_class::IprAccess                      0      0.00%    100.00% # Class of executed instruction
system.cpu.op_class::InstPrefetch                   0      0.00%    100.00% # Class of executed instruction
system.cpu.op_class::total                         17                       # Class of executed instruction
system.cpu.workload.numSyscalls                     5                       # Number of system calls
system.membus.snoop_filter.hit_multi_requests            0                       # Number of requests hitting in the snoop filter with multiple (>1) holders of the requested data.
system.membus.snoop_filter.hit_multi_snoops            0                       # Number of snoops hitting in the snoop filter with multiple (>1) holders of the requested data.
system.membus.snoop_filter.hit_single_requests        99631                       # Number of requests hitting in the snoop filter with a single holder of the requested data.
system.membus.snoop_filter.hit_single_snoops            0                       # Number of snoops hitting in the snoop filter with a single holder of the requested data.
system.membus.snoop_filter.tot_requests        202422                       # Total number of requests made to the snoop filter.
system.membus.snoop_filter.tot_snoops               0                       # Total number of snoops made to the snoop filter.
system.switch_cpus.branchPred.BTBCorrect            0                       # Number of correct BTB predictions (this stat may not work properly.
system.switch_cpus.branchPred.BTBHitPct      0.000000                       # BTB Hit Percentage
system.switch_cpus.branchPred.BTBHits               0                       # Number of BTB hits
system.switch_cpus.branchPred.BTBLookups       130177                       # Number of BTB lookups
system.switch_cpus.branchPred.RASInCorrect           35                       # Number of incorrect RAS predictions.
system.switch_cpus.branchPred.condIncorrect         6679                       # Number of conditional branches incorrect
system.switch_cpus.branchPred.condPredicted       148976                       # Number of conditional branches predicted
system.switch_cpus.branchPred.indirectHits        69805                       # Number of indirect target hits.
system.switch_cpus.branchPred.indirectLookups       130177                       # Number of indirect predictor lookups.
system.switch_cpus.branchPred.indirectMisses        60372                       # Number of indirect misses.
system.switch_cpus.branchPred.lookups          180210                       # Number of BP lookups
system.switch_cpus.branchPred.usedRAS           17954                       # Number of times the RAS was used to get a target.
system.switch_cpus.branchPredindirectMispredicted         4365                       # Number of mispredicted indirect branches.
system.switch_cpus.cc_regfile_reads            718349                       # number of cc regfile reads
system.switch_cpus.cc_regfile_writes           611688                       # number of cc regfile writes
system.switch_cpus.commit.amos                      0                       # Number of atomic instructions committed
system.switch_cpus.commit.branchMispredicts         6875                       # The number of times a branch was mispredicted
system.switch_cpus.commit.branches             106288                       # Number of branches committed
system.switch_cpus.commit.bw_lim_events       1533565                       # number cycles where commit BW limit reached
system.switch_cpus.commit.commitNonSpecStalls          405                       # The number of times commit has been forced to stall to communicate backwards
system.switch_cpus.commit.commitSquashedInsts       791307                       # The number of squashed insts skipped by commit
system.switch_cpus.commit.committedInsts     10000001                       # Number of instructions committed
system.switch_cpus.commit.committedOps       22374656                       # Number of ops (including micro ops) committed
system.switch_cpus.commit.committed_per_cycle::samples     16481781                       # Number of insts commited each cycle
system.switch_cpus.commit.committed_per_cycle::mean     1.357539                       # Number of insts commited each cycle
system.switch_cpus.commit.committed_per_cycle::stdev     2.596338                       # Number of insts commited each cycle
system.switch_cpus.commit.committed_per_cycle::underflows            0      0.00%      0.00% # Number of insts commited each cycle
system.switch_cpus.commit.committed_per_cycle::0     11760305     71.35%     71.35% # Number of insts commited each cycle
system.switch_cpus.commit.committed_per_cycle::1       725047      4.40%     75.75% # Number of insts commited each cycle
system.switch_cpus.commit.committed_per_cycle::2       842537      5.11%     80.86% # Number of insts commited each cycle
system.switch_cpus.commit.committed_per_cycle::3       282660      1.71%     82.58% # Number of insts commited each cycle
system.switch_cpus.commit.committed_per_cycle::4       554774      3.37%     85.95% # Number of insts commited each cycle
system.switch_cpus.commit.committed_per_cycle::5       259627      1.58%     87.52% # Number of insts commited each cycle
system.switch_cpus.commit.committed_per_cycle::6       332058      2.01%     89.54% # Number of insts commited each cycle
system.switch_cpus.commit.committed_per_cycle::7       191208      1.16%     90.70% # Number of insts commited each cycle
system.switch_cpus.commit.committed_per_cycle::8      1533565      9.30%    100.00% # Number of insts commited each cycle
system.switch_cpus.commit.committed_per_cycle::overflows            0      0.00%    100.00% # Number of insts commited each cycle
system.switch_cpus.commit.committed_per_cycle::min_value            0                       # Number of insts commited each cycle
system.switch_cpus.commit.committed_per_cycle::max_value            8                       # Number of insts commited each cycle
system.switch_cpus.commit.committed_per_cycle::total     16481781                       # Number of insts commited each cycle
system.switch_cpus.commit.fp_insts           20559192                       # Number of committed floating point instructions.
system.switch_cpus.commit.function_calls         8242                       # Number of function calls committed.
system.switch_cpus.commit.int_insts          10716167                       # Number of committed integer instructions.
system.switch_cpus.commit.loads               7506752                       # Number of loads committed
system.switch_cpus.commit.membars                   0                       # Number of memory barriers committed
system.switch_cpus.commit.op_class_0::No_OpClass         3248      0.01%      0.01% # Class of committed instruction
system.switch_cpus.commit.op_class_0::IntAlu      3440241     15.38%     15.39% # Class of committed instruction
system.switch_cpus.commit.op_class_0::IntMult          647      0.00%     15.39% # Class of committed instruction
system.switch_cpus.commit.op_class_0::IntDiv          133      0.00%     15.39% # Class of committed instruction
system.switch_cpus.commit.op_class_0::FloatAdd          604      0.00%     15.40% # Class of committed instruction
system.switch_cpus.commit.op_class_0::FloatCmp            0      0.00%     15.40% # Class of committed instruction
system.switch_cpus.commit.op_class_0::FloatCvt            0      0.00%     15.40% # Class of committed instruction
system.switch_cpus.commit.op_class_0::FloatMult            0      0.00%     15.40% # Class of committed instruction
system.switch_cpus.commit.op_class_0::FloatMultAcc            0      0.00%     15.40% # Class of committed instruction
system.switch_cpus.commit.op_class_0::FloatDiv            0      0.00%     15.40% # Class of committed instruction
system.switch_cpus.commit.op_class_0::FloatMisc            0      0.00%     15.40% # Class of committed instruction
system.switch_cpus.commit.op_class_0::FloatSqrt            0      0.00%     15.40% # Class of committed instruction
system.switch_cpus.commit.op_class_0::SimdAdd          746      0.00%     15.40% # Class of committed instruction
system.switch_cpus.commit.op_class_0::SimdAddAcc            0      0.00%     15.40% # Class of committed instruction
system.switch_cpus.commit.op_class_0::SimdAlu        55789      0.25%     15.65% # Class of committed instruction
system.switch_cpus.commit.op_class_0::SimdCmp            0      0.00%     15.65% # Class of committed instruction
system.switch_cpus.commit.op_class_0::SimdCvt         4810      0.02%     15.67% # Class of committed instruction
system.switch_cpus.commit.op_class_0::SimdMisc         4991      0.02%     15.69% # Class of committed instruction
system.switch_cpus.commit.op_class_0::SimdMult            0      0.00%     15.69% # Class of committed instruction
system.switch_cpus.commit.op_class_0::SimdMultAcc            0      0.00%     15.69% # Class of committed instruction
system.switch_cpus.commit.op_class_0::SimdShift           32      0.00%     15.69% # Class of committed instruction
system.switch_cpus.commit.op_class_0::SimdShiftAcc            0      0.00%     15.69% # Class of committed instruction
system.switch_cpus.commit.op_class_0::SimdDiv            0      0.00%     15.69% # Class of committed instruction
system.switch_cpus.commit.op_class_0::SimdSqrt            0      0.00%     15.69% # Class of committed instruction
system.switch_cpus.commit.op_class_0::SimdFloatAdd      5262290     23.52%     39.21% # Class of committed instruction
system.switch_cpus.commit.op_class_0::SimdFloatAlu            0      0.00%     39.21% # Class of committed instruction
system.switch_cpus.commit.op_class_0::SimdFloatCmp            0      0.00%     39.21% # Class of committed instruction
system.switch_cpus.commit.op_class_0::SimdFloatCvt            0      0.00%     39.21% # Class of committed instruction
system.switch_cpus.commit.op_class_0::SimdFloatDiv        10955      0.05%     39.26% # Class of committed instruction
system.switch_cpus.commit.op_class_0::SimdFloatMisc            0      0.00%     39.26% # Class of committed instruction
system.switch_cpus.commit.op_class_0::SimdFloatMult      3855430     17.23%     56.49% # Class of committed instruction
system.switch_cpus.commit.op_class_0::SimdFloatMultAcc            0      0.00%     56.49% # Class of committed instruction
system.switch_cpus.commit.op_class_0::SimdFloatSqrt            0      0.00%     56.49% # Class of committed instruction
system.switch_cpus.commit.op_class_0::SimdReduceAdd            0      0.00%     56.49% # Class of committed instruction
system.switch_cpus.commit.op_class_0::SimdReduceAlu            0      0.00%     56.49% # Class of committed instruction
system.switch_cpus.commit.op_class_0::SimdReduceCmp            0      0.00%     56.49% # Class of committed instruction
system.switch_cpus.commit.op_class_0::SimdFloatReduceAdd            0      0.00%     56.49% # Class of committed instruction
system.switch_cpus.commit.op_class_0::SimdFloatReduceCmp            0      0.00%     56.49% # Class of committed instruction
system.switch_cpus.commit.op_class_0::SimdAes            0      0.00%     56.49% # Class of committed instruction
system.switch_cpus.commit.op_class_0::SimdAesMix            0      0.00%     56.49% # Class of committed instruction
system.switch_cpus.commit.op_class_0::SimdSha1Hash            0      0.00%     56.49% # Class of committed instruction
system.switch_cpus.commit.op_class_0::SimdSha1Hash2            0      0.00%     56.49% # Class of committed instruction
system.switch_cpus.commit.op_class_0::SimdSha256Hash            0      0.00%     56.49% # Class of committed instruction
system.switch_cpus.commit.op_class_0::SimdSha256Hash2            0      0.00%     56.49% # Class of committed instruction
system.switch_cpus.commit.op_class_0::SimdShaSigma2            0      0.00%     56.49% # Class of committed instruction
system.switch_cpus.commit.op_class_0::SimdShaSigma3            0      0.00%     56.49% # Class of committed instruction
system.switch_cpus.commit.op_class_0::SimdPredAlu            0      0.00%     56.49% # Class of committed instruction
system.switch_cpus.commit.op_class_0::MemRead       756767      3.38%     59.87% # Class of committed instruction
system.switch_cpus.commit.op_class_0::MemWrite        77584      0.35%     60.22% # Class of committed instruction
system.switch_cpus.commit.op_class_0::FloatMemRead      6749985     30.17%     90.39% # Class of committed instruction
system.switch_cpus.commit.op_class_0::FloatMemWrite      2150404      9.61%    100.00% # Class of committed instruction
system.switch_cpus.commit.op_class_0::IprAccess            0      0.00%    100.00% # Class of committed instruction
system.switch_cpus.commit.op_class_0::InstPrefetch            0      0.00%    100.00% # Class of committed instruction
system.switch_cpus.commit.op_class_0::total     22374656                       # Class of committed instruction
system.switch_cpus.commit.refs                9734740                       # Number of memory references committed
system.switch_cpus.commit.swp_count                 0                       # Number of s/w prefetches committed
system.switch_cpus.commit.vec_insts                 0                       # Number of committed Vector instructions.
system.switch_cpus.committedInsts            10000001                       # Number of Instructions Simulated
system.switch_cpus.committedOps              22374656                       # Number of Ops (including micro ops) Simulated
system.switch_cpus.cpi                       1.671393                       # CPI: Cycles Per Instruction
system.switch_cpus.cpi_total                 1.671393                       # CPI: Total CPI of All Threads
system.switch_cpus.decode.BlockedCycles      12590669                       # Number of cycles decode is blocked
system.switch_cpus.decode.DecodedInsts       23444718                       # Number of instructions handled by decode
system.switch_cpus.decode.IdleCycles           829791                       # Number of cycles decode is idle
system.switch_cpus.decode.RunCycles           2532035                       # Number of cycles decode is running
system.switch_cpus.decode.SquashCycles          13474                       # Number of cycles decode is squashing
system.switch_cpus.decode.UnblockCycles        622842                       # Number of cycles decode is unblocking
system.switch_cpus.dtb.rdAccesses             7694833                       # TLB accesses on read requests
system.switch_cpus.dtb.rdMisses                  1896                       # TLB misses on read requests
system.switch_cpus.dtb.wrAccesses             2377449                       # TLB accesses on write requests
system.switch_cpus.dtb.wrMisses                   728                       # TLB misses on write requests
system.switch_cpus.fetch.Branches              180210                       # Number of branches that fetch encountered
system.switch_cpus.fetch.CacheLines           1122186                       # Number of cache lines fetched
system.switch_cpus.fetch.Cycles              15372456                       # Number of cycles fetch has run and was not squashing or blocked
system.switch_cpus.fetch.IcacheSquashes          2183                       # Number of outstanding Icache misses that were squashed
system.switch_cpus.fetch.IcacheWaitRetryStallCycles           80                       # Number of stall cycles due to full MSHR
system.switch_cpus.fetch.Insts               10751544                       # Number of instructions fetch has processed
system.switch_cpus.fetch.MiscStallCycles          262                       # Number of cycles fetch has spent waiting on interrupts, or bad addresses, or out of MSHRs
system.switch_cpus.fetch.PendingTrapStallCycles         1361                       # Number of stall cycles due to pending traps
system.switch_cpus.fetch.SquashCycles           26948                       # Number of cycles fetch has spent squashing
system.switch_cpus.fetch.branchRate          0.010782                       # Number of branch fetches per cycle
system.switch_cpus.fetch.icacheStallCycles      1201515                       # Number of cycles fetch is stalled on an Icache miss
system.switch_cpus.fetch.predictedBranches        87759                       # Number of branches that fetch has predicted taken
system.switch_cpus.fetch.rate                0.643268                       # Number of inst fetches per cycle
system.switch_cpus.fetch.rateDist::samples     16589148                       # Number of instructions fetched each cycle (Total)
system.switch_cpus.fetch.rateDist::mean      1.430564                       # Number of instructions fetched each cycle (Total)
system.switch_cpus.fetch.rateDist::stdev     2.919735                       # Number of instructions fetched each cycle (Total)
system.switch_cpus.fetch.rateDist::underflows            0      0.00%      0.00% # Number of instructions fetched each cycle (Total)
system.switch_cpus.fetch.rateDist::0         13040928     78.61%     78.61% # Number of instructions fetched each cycle (Total)
system.switch_cpus.fetch.rateDist::1           109098      0.66%     79.27% # Number of instructions fetched each cycle (Total)
system.switch_cpus.fetch.rateDist::2           213464      1.29%     80.56% # Number of instructions fetched each cycle (Total)
system.switch_cpus.fetch.rateDist::3           175659      1.06%     81.61% # Number of instructions fetched each cycle (Total)
system.switch_cpus.fetch.rateDist::4           187535      1.13%     82.74% # Number of instructions fetched each cycle (Total)
system.switch_cpus.fetch.rateDist::5           149428      0.90%     83.65% # Number of instructions fetched each cycle (Total)
system.switch_cpus.fetch.rateDist::6           223268      1.35%     84.99% # Number of instructions fetched each cycle (Total)
system.switch_cpus.fetch.rateDist::7            86197      0.52%     85.51% # Number of instructions fetched each cycle (Total)
system.switch_cpus.fetch.rateDist::8          2403571     14.49%    100.00% # Number of instructions fetched each cycle (Total)
system.switch_cpus.fetch.rateDist::overflows            0      0.00%    100.00% # Number of instructions fetched each cycle (Total)
system.switch_cpus.fetch.rateDist::min_value            0                       # Number of instructions fetched each cycle (Total)
system.switch_cpus.fetch.rateDist::max_value            8                       # Number of instructions fetched each cycle (Total)
system.switch_cpus.fetch.rateDist::total     16589148                       # Number of instructions fetched each cycle (Total)
system.switch_cpus.fp_regfile_reads          34697604                       # number of floating regfile reads
system.switch_cpus.fp_regfile_writes         18490870                       # number of floating regfile writes
system.switch_cpus.idleCycles                  124782                       # Total number of cycles that the CPU has spent unscheduled due to idling
system.switch_cpus.iew.branchMispredicts         9211                       # Number of branch mispredicts detected at execute
system.switch_cpus.iew.exec_branches           138367                       # Number of branches executed
system.switch_cpus.iew.exec_nop                     0                       # number of nop insts executed
system.switch_cpus.iew.exec_rate             1.392188                       # Inst execution rate
system.switch_cpus.iew.exec_refs             10223234                       # number of memory reference insts executed
system.switch_cpus.iew.exec_stores            2377449                       # Number of stores executed
system.switch_cpus.iew.exec_swp                     0                       # number of swp insts executed
system.switch_cpus.iew.iewBlockCycles          399772                       # Number of cycles IEW is blocking
system.switch_cpus.iew.iewDispLoadInsts       7710575                       # Number of dispatched load instructions
system.switch_cpus.iew.iewDispNonSpecInsts           10                       # Number of dispatched non-speculative instructions
system.switch_cpus.iew.iewDispSquashedInsts          346                       # Number of squashed instructions skipped by dispatch
system.switch_cpus.iew.iewDispStoreInsts      2445807                       # Number of dispatched store instructions
system.switch_cpus.iew.iewDispatchedInsts     23283670                       # Number of instructions dispatched to IQ
system.switch_cpus.iew.iewExecLoadInsts       7845785                       # Number of load instructions executed
system.switch_cpus.iew.iewExecSquashedInsts        18844                       # Number of squashed instructions skipped in execute
system.switch_cpus.iew.iewExecutedInsts      23268941                       # Number of executed instructions
system.switch_cpus.iew.iewIQFullEvents           3856                       # Number of times the IQ has become full, causing a stall
system.switch_cpus.iew.iewIdleCycles                0                       # Number of cycles IEW is idle
system.switch_cpus.iew.iewLSQFullEvents       4268052                       # Number of times the LSQ has become full, causing a stall
system.switch_cpus.iew.iewSquashCycles          13474                       # Number of cycles IEW is squashing
system.switch_cpus.iew.iewUnblockCycles       4277549                       # Number of cycles IEW is unblocking
system.switch_cpus.iew.lsq.thread0.blockedLoads            0                       # Number of blocked loads due to partial load-store forwarding
system.switch_cpus.iew.lsq.thread0.cacheBlocked        29474                       # Number of times an access to memory failed due to the cache being blocked
system.switch_cpus.iew.lsq.thread0.forwLoads       558113                       # Number of loads that had data forwarded from stores
system.switch_cpus.iew.lsq.thread0.ignoredResponses          102                       # Number of memory responses ignored because the instruction is squashed
system.switch_cpus.iew.lsq.thread0.invAddrLoads            0                       # Number of loads ignored due to an invalid address
system.switch_cpus.iew.lsq.thread0.invAddrSwpfs            0                       # Number of software prefetches ignored due to an invalid address
system.switch_cpus.iew.lsq.thread0.memOrderViolation          310                       # Number of memory ordering violations
system.switch_cpus.iew.lsq.thread0.rescheduledLoads            0                       # Number of loads that were rescheduled
system.switch_cpus.iew.lsq.thread0.squashedLoads       203798                       # Number of loads squashed
system.switch_cpus.iew.lsq.thread0.squashedStores       217815                       # Number of stores squashed
system.switch_cpus.iew.memOrderViolationEvents          310                       # Number of memory order violations
system.switch_cpus.iew.predictedNotTakenIncorrect         7483                       # Number of branches that were predicted not taken incorrectly
system.switch_cpus.iew.predictedTakenIncorrect         1728                       # Number of branches that were predicted taken incorrectly
system.switch_cpus.iew.wb_consumers          28929459                       # num instructions consuming a value
system.switch_cpus.iew.wb_count              23048289                       # cumulative count of insts written-back
system.switch_cpus.iew.wb_fanout             0.606265                       # average fanout of values written-back
system.switch_cpus.iew.wb_producers          17538915                       # num instructions producing a value
system.switch_cpus.iew.wb_rate               1.378987                       # insts written-back per cycle
system.switch_cpus.iew.wb_sent               23104865                       # cumulative count of insts sent to commit
system.switch_cpus.int_regfile_reads         21981008                       # number of integer regfile reads
system.switch_cpus.int_regfile_writes         2041551                       # number of integer regfile writes
system.switch_cpus.ipc                       0.598303                       # IPC: Instructions Per Cycle
system.switch_cpus.ipc_total                 0.598303                       # IPC: Total IPC of All Threads
system.switch_cpus.iq.FU_type_0::No_OpClass        55587      0.24%      0.24% # Type of FU issued
system.switch_cpus.iq.FU_type_0::IntAlu       3801526     16.32%     16.56% # Type of FU issued
system.switch_cpus.iq.FU_type_0::IntMult          652      0.00%     16.57% # Type of FU issued
system.switch_cpus.iq.FU_type_0::IntDiv           140      0.00%     16.57% # Type of FU issued
system.switch_cpus.iq.FU_type_0::FloatAdd         3651      0.02%     16.58% # Type of FU issued
system.switch_cpus.iq.FU_type_0::FloatCmp            0      0.00%     16.58% # Type of FU issued
system.switch_cpus.iq.FU_type_0::FloatCvt            0      0.00%     16.58% # Type of FU issued
system.switch_cpus.iq.FU_type_0::FloatMult            0      0.00%     16.58% # Type of FU issued
system.switch_cpus.iq.FU_type_0::FloatMultAcc            0      0.00%     16.58% # Type of FU issued
system.switch_cpus.iq.FU_type_0::FloatDiv            0      0.00%     16.58% # Type of FU issued
system.switch_cpus.iq.FU_type_0::FloatMisc            0      0.00%     16.58% # Type of FU issued
system.switch_cpus.iq.FU_type_0::FloatSqrt            0      0.00%     16.58% # Type of FU issued
system.switch_cpus.iq.FU_type_0::SimdAdd          790      0.00%     16.59% # Type of FU issued
system.switch_cpus.iq.FU_type_0::SimdAddAcc            0      0.00%     16.59% # Type of FU issued
system.switch_cpus.iq.FU_type_0::SimdAlu        56658      0.24%     16.83% # Type of FU issued
system.switch_cpus.iq.FU_type_0::SimdCmp            0      0.00%     16.83% # Type of FU issued
system.switch_cpus.iq.FU_type_0::SimdCvt         5001      0.02%     16.85% # Type of FU issued
system.switch_cpus.iq.FU_type_0::SimdMisc         5132      0.02%     16.87% # Type of FU issued
system.switch_cpus.iq.FU_type_0::SimdMult            0      0.00%     16.87% # Type of FU issued
system.switch_cpus.iq.FU_type_0::SimdMultAcc            0      0.00%     16.87% # Type of FU issued
system.switch_cpus.iq.FU_type_0::SimdShift           78      0.00%     16.87% # Type of FU issued
system.switch_cpus.iq.FU_type_0::SimdShiftAcc            0      0.00%     16.87% # Type of FU issued
system.switch_cpus.iq.FU_type_0::SimdDiv            0      0.00%     16.87% # Type of FU issued
system.switch_cpus.iq.FU_type_0::SimdSqrt            0      0.00%     16.87% # Type of FU issued
system.switch_cpus.iq.FU_type_0::SimdFloatAdd      5262536     22.60%     39.47% # Type of FU issued
system.switch_cpus.iq.FU_type_0::SimdFloatAlu            0      0.00%     39.47% # Type of FU issued
system.switch_cpus.iq.FU_type_0::SimdFloatCmp            0      0.00%     39.47% # Type of FU issued
system.switch_cpus.iq.FU_type_0::SimdFloatCvt            0      0.00%     39.47% # Type of FU issued
system.switch_cpus.iq.FU_type_0::SimdFloatDiv        10956      0.05%     39.52% # Type of FU issued
system.switch_cpus.iq.FU_type_0::SimdFloatMisc            0      0.00%     39.52% # Type of FU issued
system.switch_cpus.iq.FU_type_0::SimdFloatMult      3855529     16.56%     56.07% # Type of FU issued
system.switch_cpus.iq.FU_type_0::SimdFloatMultAcc            0      0.00%     56.07% # Type of FU issued
system.switch_cpus.iq.FU_type_0::SimdFloatSqrt            0      0.00%     56.07% # Type of FU issued
system.switch_cpus.iq.FU_type_0::SimdReduceAdd            0      0.00%     56.07% # Type of FU issued
system.switch_cpus.iq.FU_type_0::SimdReduceAlu            0      0.00%     56.07% # Type of FU issued
system.switch_cpus.iq.FU_type_0::SimdReduceCmp            0      0.00%     56.07% # Type of FU issued
system.switch_cpus.iq.FU_type_0::SimdFloatReduceAdd            0      0.00%     56.07% # Type of FU issued
system.switch_cpus.iq.FU_type_0::SimdFloatReduceCmp            0      0.00%     56.07% # Type of FU issued
system.switch_cpus.iq.FU_type_0::SimdAes            0      0.00%     56.07% # Type of FU issued
system.switch_cpus.iq.FU_type_0::SimdAesMix            0      0.00%     56.07% # Type of FU issued
system.switch_cpus.iq.FU_type_0::SimdSha1Hash            0      0.00%     56.07% # Type of FU issued
system.switch_cpus.iq.FU_type_0::SimdSha1Hash2            0      0.00%     56.07% # Type of FU issued
system.switch_cpus.iq.FU_type_0::SimdSha256Hash            0      0.00%     56.07% # Type of FU issued
system.switch_cpus.iq.FU_type_0::SimdSha256Hash2            0      0.00%     56.07% # Type of FU issued
system.switch_cpus.iq.FU_type_0::SimdShaSigma2            0      0.00%     56.07% # Type of FU issued
system.switch_cpus.iq.FU_type_0::SimdShaSigma3            0      0.00%     56.07% # Type of FU issued
system.switch_cpus.iq.FU_type_0::SimdPredAlu            0      0.00%     56.07% # Type of FU issued
system.switch_cpus.iq.FU_type_0::MemRead       900262      3.87%     59.94% # Type of FU issued
system.switch_cpus.iq.FU_type_0::MemWrite       131424      0.56%     60.50% # Type of FU issued
system.switch_cpus.iq.FU_type_0::FloatMemRead      6950557     29.85%     90.35% # Type of FU issued
system.switch_cpus.iq.FU_type_0::FloatMemWrite      2247309      9.65%    100.00% # Type of FU issued
system.switch_cpus.iq.FU_type_0::IprAccess            0      0.00%    100.00% # Type of FU issued
system.switch_cpus.iq.FU_type_0::InstPrefetch            0      0.00%    100.00% # Type of FU issued
system.switch_cpus.iq.FU_type_0::total       23287788                       # Type of FU issued
system.switch_cpus.iq.fp_alu_accesses        21771711                       # Number of floating point alu accesses
system.switch_cpus.iq.fp_inst_queue_reads     42633606                       # Number of floating instruction queue reads
system.switch_cpus.iq.fp_inst_queue_wakeup_accesses     20740193                       # Number of floating instruction queue wakeup accesses
system.switch_cpus.iq.fp_inst_queue_writes     21028847                       # Number of floating instruction queue writes
system.switch_cpus.iq.fu_busy_cnt             1026399                       # FU busy when requested
system.switch_cpus.iq.fu_busy_rate           0.044075                       # FU busy rate (busy events/executed inst)
system.switch_cpus.iq.fu_full::No_OpClass            0      0.00%      0.00% # attempts to use FU when none available
system.switch_cpus.iq.fu_full::IntAlu           13643      1.33%      1.33% # attempts to use FU when none available
system.switch_cpus.iq.fu_full::IntMult              0      0.00%      1.33% # attempts to use FU when none available
system.switch_cpus.iq.fu_full::IntDiv               0      0.00%      1.33% # attempts to use FU when none available
system.switch_cpus.iq.fu_full::FloatAdd             0      0.00%      1.33% # attempts to use FU when none available
system.switch_cpus.iq.fu_full::FloatCmp             0      0.00%      1.33% # attempts to use FU when none available
system.switch_cpus.iq.fu_full::FloatCvt             0      0.00%      1.33% # attempts to use FU when none available
system.switch_cpus.iq.fu_full::FloatMult            0      0.00%      1.33% # attempts to use FU when none available
system.switch_cpus.iq.fu_full::FloatMultAcc            0      0.00%      1.33% # attempts to use FU when none available
system.switch_cpus.iq.fu_full::FloatDiv             0      0.00%      1.33% # attempts to use FU when none available
system.switch_cpus.iq.fu_full::FloatMisc            0      0.00%      1.33% # attempts to use FU when none available
system.switch_cpus.iq.fu_full::FloatSqrt            0      0.00%      1.33% # attempts to use FU when none available
system.switch_cpus.iq.fu_full::SimdAdd              0      0.00%      1.33% # attempts to use FU when none available
system.switch_cpus.iq.fu_full::SimdAddAcc            0      0.00%      1.33% # attempts to use FU when none available
system.switch_cpus.iq.fu_full::SimdAlu            708      0.07%      1.40% # attempts to use FU when none available
system.switch_cpus.iq.fu_full::SimdCmp              0      0.00%      1.40% # attempts to use FU when none available
system.switch_cpus.iq.fu_full::SimdCvt              3      0.00%      1.40% # attempts to use FU when none available
system.switch_cpus.iq.fu_full::SimdMisc           363      0.04%      1.43% # attempts to use FU when none available
system.switch_cpus.iq.fu_full::SimdMult             0      0.00%      1.43% # attempts to use FU when none available
system.switch_cpus.iq.fu_full::SimdMultAcc            0      0.00%      1.43% # attempts to use FU when none available
system.switch_cpus.iq.fu_full::SimdShift            1      0.00%      1.43% # attempts to use FU when none available
system.switch_cpus.iq.fu_full::SimdShiftAcc            0      0.00%      1.43% # attempts to use FU when none available
system.switch_cpus.iq.fu_full::SimdDiv              0      0.00%      1.43% # attempts to use FU when none available
system.switch_cpus.iq.fu_full::SimdSqrt             0      0.00%      1.43% # attempts to use FU when none available
system.switch_cpus.iq.fu_full::SimdFloatAdd       116930     11.39%     12.83% # attempts to use FU when none available
system.switch_cpus.iq.fu_full::SimdFloatAlu            0      0.00%     12.83% # attempts to use FU when none available
system.switch_cpus.iq.fu_full::SimdFloatCmp            0      0.00%     12.83% # attempts to use FU when none available
system.switch_cpus.iq.fu_full::SimdFloatCvt            0      0.00%     12.83% # attempts to use FU when none available
system.switch_cpus.iq.fu_full::SimdFloatDiv            0      0.00%     12.83% # attempts to use FU when none available
system.switch_cpus.iq.fu_full::SimdFloatMisc            0      0.00%     12.83% # attempts to use FU when none available
system.switch_cpus.iq.fu_full::SimdFloatMult       250543     24.41%     37.24% # attempts to use FU when none available
system.switch_cpus.iq.fu_full::SimdFloatMultAcc            0      0.00%     37.24% # attempts to use FU when none available
system.switch_cpus.iq.fu_full::SimdFloatSqrt            0      0.00%     37.24% # attempts to use FU when none available
system.switch_cpus.iq.fu_full::SimdReduceAdd            0      0.00%     37.24% # attempts to use FU when none available
system.switch_cpus.iq.fu_full::SimdReduceAlu            0      0.00%     37.24% # attempts to use FU when none available
system.switch_cpus.iq.fu_full::SimdReduceCmp            0      0.00%     37.24% # attempts to use FU when none available
system.switch_cpus.iq.fu_full::SimdFloatReduceAdd            0      0.00%     37.24% # attempts to use FU when none available
system.switch_cpus.iq.fu_full::SimdFloatReduceCmp            0      0.00%     37.24% # attempts to use FU when none available
system.switch_cpus.iq.fu_full::SimdAes              0      0.00%     37.24% # attempts to use FU when none available
system.switch_cpus.iq.fu_full::SimdAesMix            0      0.00%     37.24% # attempts to use FU when none available
system.switch_cpus.iq.fu_full::SimdSha1Hash            0      0.00%     37.24% # attempts to use FU when none available
system.switch_cpus.iq.fu_full::SimdSha1Hash2            0      0.00%     37.24% # attempts to use FU when none available
system.switch_cpus.iq.fu_full::SimdSha256Hash            0      0.00%     37.24% # attempts to use FU when none available
system.switch_cpus.iq.fu_full::SimdSha256Hash2            0      0.00%     37.24% # attempts to use FU when none available
system.switch_cpus.iq.fu_full::SimdShaSigma2            0      0.00%     37.24% # attempts to use FU when none available
system.switch_cpus.iq.fu_full::SimdShaSigma3            0      0.00%     37.24% # attempts to use FU when none available
system.switch_cpus.iq.fu_full::SimdPredAlu            0      0.00%     37.24% # attempts to use FU when none available
system.switch_cpus.iq.fu_full::MemRead          87879      8.56%     45.80% # attempts to use FU when none available
system.switch_cpus.iq.fu_full::MemWrite         14632      1.43%     47.22% # attempts to use FU when none available
system.switch_cpus.iq.fu_full::FloatMemRead       485780     47.33%     94.55% # attempts to use FU when none available
system.switch_cpus.iq.fu_full::FloatMemWrite        55917      5.45%    100.00% # attempts to use FU when none available
system.switch_cpus.iq.fu_full::IprAccess            0      0.00%    100.00% # attempts to use FU when none available
system.switch_cpus.iq.fu_full::InstPrefetch            0      0.00%    100.00% # attempts to use FU when none available
system.switch_cpus.iq.int_alu_accesses        2486889                       # Number of integer alu accesses
system.switch_cpus.iq.int_inst_queue_reads     21561356                       # Number of integer instruction queue reads
system.switch_cpus.iq.int_inst_queue_wakeup_accesses      2308096                       # Number of integer instruction queue wakeup accesses
system.switch_cpus.iq.int_inst_queue_writes      3164091                       # Number of integer instruction queue writes
system.switch_cpus.iq.iqInstsAdded           23278837                       # Number of instructions added to the IQ (excludes non-spec)
system.switch_cpus.iq.iqInstsIssued          23287788                       # Number of instructions issued
system.switch_cpus.iq.iqNonSpecInstsAdded         4833                       # Number of non-speculative instructions added to the IQ
system.switch_cpus.iq.iqSquashedInstsExamined       908969                       # Number of squashed instructions iterated over during squash; mainly for profiling
system.switch_cpus.iq.iqSquashedInstsIssued         3842                       # Number of squashed instructions issued
system.switch_cpus.iq.iqSquashedNonSpecRemoved         4428                       # Number of squashed non-spec instructions that were removed
system.switch_cpus.iq.iqSquashedOperandsExamined       608786                       # Number of squashed operands that are examined and possibly removed from graph
system.switch_cpus.iq.issued_per_cycle::samples     16589148                       # Number of insts issued each cycle
system.switch_cpus.iq.issued_per_cycle::mean     1.403797                       # Number of insts issued each cycle
system.switch_cpus.iq.issued_per_cycle::stdev     2.358548                       # Number of insts issued each cycle
system.switch_cpus.iq.issued_per_cycle::underflows            0      0.00%      0.00% # Number of insts issued each cycle
system.switch_cpus.iq.issued_per_cycle::0     11122466     67.05%     67.05% # Number of insts issued each cycle
system.switch_cpus.iq.issued_per_cycle::1       714989      4.31%     71.36% # Number of insts issued each cycle
system.switch_cpus.iq.issued_per_cycle::2       740390      4.46%     75.82% # Number of insts issued each cycle
system.switch_cpus.iq.issued_per_cycle::3       647670      3.90%     79.72% # Number of insts issued each cycle
system.switch_cpus.iq.issued_per_cycle::4       898015      5.41%     85.14% # Number of insts issued each cycle
system.switch_cpus.iq.issued_per_cycle::5       709426      4.28%     89.41% # Number of insts issued each cycle
system.switch_cpus.iq.issued_per_cycle::6       781288      4.71%     94.12% # Number of insts issued each cycle
system.switch_cpus.iq.issued_per_cycle::7       477141      2.88%     97.00% # Number of insts issued each cycle
system.switch_cpus.iq.issued_per_cycle::8       497763      3.00%    100.00% # Number of insts issued each cycle
system.switch_cpus.iq.issued_per_cycle::overflows            0      0.00%    100.00% # Number of insts issued each cycle
system.switch_cpus.iq.issued_per_cycle::min_value            0                       # Number of insts issued each cycle
system.switch_cpus.iq.issued_per_cycle::max_value            8                       # Number of insts issued each cycle
system.switch_cpus.iq.issued_per_cycle::total     16589148                       # Number of insts issued each cycle
system.switch_cpus.iq.rate                   1.393316                       # Inst issue rate
system.switch_cpus.iq.vec_alu_accesses              0                       # Number of vector alu accesses
system.switch_cpus.iq.vec_inst_queue_reads            0                       # Number of vector instruction queue reads
system.switch_cpus.iq.vec_inst_queue_wakeup_accesses            0                       # Number of vector instruction queue wakeup accesses
system.switch_cpus.iq.vec_inst_queue_writes            0                       # Number of vector instruction queue writes
system.switch_cpus.itb.rdAccesses                   0                       # TLB accesses on read requests
system.switch_cpus.itb.rdMisses                     0                       # TLB misses on read requests
system.switch_cpus.itb.wrAccesses             1122413                       # TLB accesses on write requests
system.switch_cpus.itb.wrMisses                   307                       # TLB misses on write requests
system.switch_cpus.memDep0.conflictingLoads        23587                       # Number of conflicting loads.
system.switch_cpus.memDep0.conflictingStores       114236                       # Number of conflicting stores.
system.switch_cpus.memDep0.insertedLoads      7710575                       # Number of loads inserted to the mem dependence unit.
system.switch_cpus.memDep0.insertedStores      2445807                       # Number of stores inserted to the mem dependence unit.
system.switch_cpus.misc_regfile_reads        10732417                       # number of misc regfile reads
system.switch_cpus.misc_regfile_writes              1                       # number of misc regfile writes
system.switch_cpus.numCycles                 16713930                       # number of cpu cycles simulated
system.switch_cpus.numWorkItemsCompleted            0                       # number of work items this cpu completed
system.switch_cpus.numWorkItemsStarted              0                       # number of work items this cpu started
system.switch_cpus.rename.BlockCycles         4758544                       # Number of cycles rename is blocking
system.switch_cpus.rename.CommittedMaps      20443121                       # Number of HB maps that are committed
system.switch_cpus.rename.IQFullEvents         192611                       # Number of times rename has blocked due to IQ full
system.switch_cpus.rename.IdleCycles          1111994                       # Number of cycles rename is idle
system.switch_cpus.rename.LQFullEvents        2445922                       # Number of times rename has blocked due to LQ full
system.switch_cpus.rename.ROBFullEvents         15090                       # Number of times rename has blocked due to ROB full
system.switch_cpus.rename.RenameLookups      68447196                       # Number of register rename lookups that rename has made
system.switch_cpus.rename.RenamedInsts       23362312                       # Number of instructions processed by rename
system.switch_cpus.rename.RenamedOperands     21361698                       # Number of destination operands rename has renamed
system.switch_cpus.rename.RunCycles           2862409                       # Number of cycles rename is running
system.switch_cpus.rename.SQFullEvents        5173562                       # Number of times rename has blocked due to SQ full
system.switch_cpus.rename.SquashCycles          13474                       # Number of cycles rename is squashing
system.switch_cpus.rename.UnblockCycles       7842324                       # Number of cycles rename is unblocking
system.switch_cpus.rename.UndoneMaps           918523                       # Number of HB maps that are undone due to squashing
system.switch_cpus.rename.fp_rename_lookups     34762815                       # Number of floating rename lookups
system.switch_cpus.rename.int_rename_lookups     22128118                       # Number of integer rename lookups
system.switch_cpus.rename.serializeStallCycles           66                       # count of cycles rename stalled for serializing inst
system.switch_cpus.rename.serializingInsts           12                       # count of serializing insts renamed
system.switch_cpus.rename.skidInsts           3800278                       # count of insts added to the skid buffer
system.switch_cpus.rename.tempSerializingInsts           12                       # count of temporary serializing insts renamed
system.switch_cpus.rob.rob_reads             38030979                       # The number of ROB reads
system.switch_cpus.rob.rob_writes            46439645                       # The number of ROB writes
system.switch_cpus.timesIdled                    1426                       # Number of times that the entire CPU went into an idle state and unscheduled itself
system.tol2bus.snoop_filter.hit_multi_requests            8                       # Number of requests hitting in the snoop filter with multiple (>1) holders of the requested data.
system.tol2bus.snoop_filter.hit_multi_snoops            0                       # Number of snoops hitting in the snoop filter with multiple (>1) holders of the requested data.
system.tol2bus.snoop_filter.hit_single_requests       119278                       # Number of requests hitting in the snoop filter with a single holder of the requested data.
system.tol2bus.snoop_filter.hit_single_snoops        97901                       # Number of snoops hitting in the snoop filter with a single holder of the requested data.
system.tol2bus.snoop_filter.tot_requests       240099                       # Total number of requests made to the snoop filter.
system.tol2bus.snoop_filter.tot_snoops          97901                       # Total number of snoops made to the snoop filter.
system.membus.pwrStateResidencyTicks::UNDEFINED 371669451858500                       # Cumulative time (in ticks) in various power states
system.membus.trans_dist::ReadResp              71905                       # Transaction distribution
system.membus.trans_dist::WritebackDirty        30862                       # Transaction distribution
system.membus.trans_dist::CleanEvict            68766                       # Transaction distribution
system.membus.trans_dist::UpgradeReq                3                       # Transaction distribution
system.membus.trans_dist::ReadExReq             30886                       # Transaction distribution
system.membus.trans_dist::ReadExResp            30886                       # Transaction distribution
system.membus.trans_dist::ReadSharedReq         71905                       # Transaction distribution
system.membus.pkt_count_system.l2.mem_side::system.mem_ctrls.port       305213                       # Packet count per connected master and slave (bytes)
system.membus.pkt_count_system.l2.mem_side::total       305213                       # Packet count per connected master and slave (bytes)
system.membus.pkt_count::total                 305213                       # Packet count per connected master and slave (bytes)
system.membus.pkt_size_system.l2.mem_side::system.mem_ctrls.port      8553792                       # Cumulative packet size per connected master and slave (bytes)
system.membus.pkt_size_system.l2.mem_side::total      8553792                       # Cumulative packet size per connected master and slave (bytes)
system.membus.pkt_size::total                 8553792                       # Cumulative packet size per connected master and slave (bytes)
system.membus.snoops                                0                       # Total snoops (count)
system.membus.snoopTraffic                          0                       # Total snoop traffic (bytes)
system.membus.snoop_fanout::samples            102794                       # Request fanout histogram
system.membus.snoop_fanout::mean                    0                       # Request fanout histogram
system.membus.snoop_fanout::stdev                   0                       # Request fanout histogram
system.membus.snoop_fanout::underflows              0      0.00%      0.00% # Request fanout histogram
system.membus.snoop_fanout::0                  102794    100.00%    100.00% # Request fanout histogram
system.membus.snoop_fanout::1                       0      0.00%    100.00% # Request fanout histogram
system.membus.snoop_fanout::overflows               0      0.00%    100.00% # Request fanout histogram
system.membus.snoop_fanout::min_value               0                       # Request fanout histogram
system.membus.snoop_fanout::max_value               0                       # Request fanout histogram
system.membus.snoop_fanout::total              102794                       # Request fanout histogram
system.membus.reqLayer2.occupancy           346126500                       # Layer occupancy (ticks)
system.membus.reqLayer2.utilization               4.1                       # Layer utilization (%)
system.membus.respLayer1.occupancy          567711250                       # Layer occupancy (ticks)
system.membus.respLayer1.utilization              6.8                       # Layer utilization (%)
system.switch_cpus.pwrStateResidencyTicks::OFF   8356976000                       # Cumulative time (in ticks) in various power states
system.switch_cpus.dtb.walker.pwrStateResidencyTicks::UNDEFINED 371669451858500                       # Cumulative time (in ticks) in various power states
system.switch_cpus.itb.walker.pwrStateResidencyTicks::UNDEFINED 371669451858500                       # Cumulative time (in ticks) in various power states
system.tol2bus.pwrStateResidencyTicks::UNDEFINED 371669451858500                       # Cumulative time (in ticks) in various power states
system.tol2bus.trans_dist::ReadResp             85165                       # Transaction distribution
system.tol2bus.trans_dist::WritebackDirty        76366                       # Transaction distribution
system.tol2bus.trans_dist::WritebackClean         1788                       # Transaction distribution
system.tol2bus.trans_dist::CleanEvict          172923                       # Transaction distribution
system.tol2bus.trans_dist::UpgradeReq               3                       # Transaction distribution
system.tol2bus.trans_dist::UpgradeResp              3                       # Transaction distribution
system.tol2bus.trans_dist::ReadExReq            35651                       # Transaction distribution
system.tol2bus.trans_dist::ReadExResp           35651                       # Transaction distribution
system.tol2bus.trans_dist::ReadCleanReq          2302                       # Transaction distribution
system.tol2bus.trans_dist::ReadSharedReq        82865                       # Transaction distribution
system.tol2bus.pkt_count_system.cpu.icache.mem_side::system.l2.cpu_side         6389                       # Packet count per connected master and slave (bytes)
system.tol2bus.pkt_count_system.cpu.dcache.mem_side::system.l2.cpu_side       354526                       # Packet count per connected master and slave (bytes)
system.tol2bus.pkt_count::total                360915                       # Packet count per connected master and slave (bytes)
system.tol2bus.pkt_size_system.cpu.icache.mem_side::system.l2.cpu_side       261568                       # Cumulative packet size per connected master and slave (bytes)
system.tol2bus.pkt_size_system.cpu.dcache.mem_side::system.l2.cpu_side     10497152                       # Cumulative packet size per connected master and slave (bytes)
system.tol2bus.pkt_size::total               10758720                       # Cumulative packet size per connected master and slave (bytes)
system.tol2bus.snoops                          131802                       # Total snoops (count)
system.tol2bus.snoopTraffic                   1975360                       # Total snoop traffic (bytes)
system.tol2bus.snoop_fanout::samples           252620                       # Request fanout histogram
system.tol2bus.snoop_fanout::mean            0.387574                       # Request fanout histogram
system.tol2bus.snoop_fanout::stdev           0.487197                       # Request fanout histogram
system.tol2bus.snoop_fanout::underflows             0      0.00%      0.00% # Request fanout histogram
system.tol2bus.snoop_fanout::0                 154711     61.24%     61.24% # Request fanout histogram
system.tol2bus.snoop_fanout::1                  97909     38.76%    100.00% # Request fanout histogram
system.tol2bus.snoop_fanout::2                      0      0.00%    100.00% # Request fanout histogram
system.tol2bus.snoop_fanout::3                      0      0.00%    100.00% # Request fanout histogram
system.tol2bus.snoop_fanout::4                      0      0.00%    100.00% # Request fanout histogram
system.tol2bus.snoop_fanout::overflows              0      0.00%    100.00% # Request fanout histogram
system.tol2bus.snoop_fanout::min_value              0                       # Request fanout histogram
system.tol2bus.snoop_fanout::max_value              1                       # Request fanout histogram
system.tol2bus.snoop_fanout::total             252620                       # Request fanout histogram
system.tol2bus.reqLayer0.occupancy          167338500                       # Layer occupancy (ticks)
system.tol2bus.reqLayer0.utilization              2.0                       # Layer utilization (%)
system.tol2bus.respLayer1.occupancy         177766500                       # Layer occupancy (ticks)
system.tol2bus.respLayer1.utilization             2.1                       # Layer utilization (%)
system.tol2bus.respLayer0.occupancy           3450000                       # Layer occupancy (ticks)
system.tol2bus.respLayer0.utilization             0.0                       # Layer utilization (%)
system.voltage_domain.voltage                       1                       # Voltage in Volts
system.clk_domain.clock                          1000                       # Clock period in ticks
system.l2.pwrStateResidencyTicks::UNDEFINED 371669451858500                       # Cumulative time (in ticks) in various power states
system.l2.demand_hits::.switch_cpus.inst          849                       # number of demand (read+write) hits
system.l2.demand_hits::.switch_cpus.data        17173                       # number of demand (read+write) hits
system.l2.demand_hits::total                    18022                       # number of demand (read+write) hits
system.l2.overall_hits::.switch_cpus.inst          849                       # number of overall hits
system.l2.overall_hits::.switch_cpus.data        17173                       # number of overall hits
system.l2.overall_hits::total                   18022                       # number of overall hits
system.l2.demand_misses::.cpu.inst                  2                       # number of demand (read+write) misses
system.l2.demand_misses::.cpu.data                  4                       # number of demand (read+write) misses
system.l2.demand_misses::.switch_cpus.inst         1448                       # number of demand (read+write) misses
system.l2.demand_misses::.switch_cpus.data       101339                       # number of demand (read+write) misses
system.l2.demand_misses::total                 102793                       # number of demand (read+write) misses
system.l2.overall_misses::.cpu.inst                 2                       # number of overall misses
system.l2.overall_misses::.cpu.data                 4                       # number of overall misses
system.l2.overall_misses::.switch_cpus.inst         1448                       # number of overall misses
system.l2.overall_misses::.switch_cpus.data       101339                       # number of overall misses
system.l2.overall_misses::total                102793                       # number of overall misses
system.l2.demand_miss_latency::.switch_cpus.inst    118046000                       # number of demand (read+write) miss cycles
system.l2.demand_miss_latency::.switch_cpus.data  10325607500                       # number of demand (read+write) miss cycles
system.l2.demand_miss_latency::total      10443653500                       # number of demand (read+write) miss cycles
system.l2.overall_miss_latency::.switch_cpus.inst    118046000                       # number of overall miss cycles
system.l2.overall_miss_latency::.switch_cpus.data  10325607500                       # number of overall miss cycles
system.l2.overall_miss_latency::total     10443653500                       # number of overall miss cycles
system.l2.demand_accesses::.cpu.inst                2                       # number of demand (read+write) accesses
system.l2.demand_accesses::.cpu.data                4                       # number of demand (read+write) accesses
system.l2.demand_accesses::.switch_cpus.inst         2297                       # number of demand (read+write) accesses
system.l2.demand_accesses::.switch_cpus.data       118512                       # number of demand (read+write) accesses
system.l2.demand_accesses::total               120815                       # number of demand (read+write) accesses
system.l2.overall_accesses::.cpu.inst               2                       # number of overall (read+write) accesses
system.l2.overall_accesses::.cpu.data               4                       # number of overall (read+write) accesses
system.l2.overall_accesses::.switch_cpus.inst         2297                       # number of overall (read+write) accesses
system.l2.overall_accesses::.switch_cpus.data       118512                       # number of overall (read+write) accesses
system.l2.overall_accesses::total              120815                       # number of overall (read+write) accesses
system.l2.demand_miss_rate::.cpu.inst               1                       # miss rate for demand accesses
system.l2.demand_miss_rate::.cpu.data               1                       # miss rate for demand accesses
system.l2.demand_miss_rate::.switch_cpus.inst     0.630387                       # miss rate for demand accesses
system.l2.demand_miss_rate::.switch_cpus.data     0.855095                       # miss rate for demand accesses
system.l2.demand_miss_rate::total            0.850830                       # miss rate for demand accesses
system.l2.overall_miss_rate::.cpu.inst              1                       # miss rate for overall accesses
system.l2.overall_miss_rate::.cpu.data              1                       # miss rate for overall accesses
system.l2.overall_miss_rate::.switch_cpus.inst     0.630387                       # miss rate for overall accesses
system.l2.overall_miss_rate::.switch_cpus.data     0.855095                       # miss rate for overall accesses
system.l2.overall_miss_rate::total           0.850830                       # miss rate for overall accesses
system.l2.demand_avg_miss_latency::.switch_cpus.inst 81523.480663                       # average overall miss latency
system.l2.demand_avg_miss_latency::.switch_cpus.data 101891.744541                       # average overall miss latency
system.l2.demand_avg_miss_latency::total 101598.878328                       # average overall miss latency
system.l2.overall_avg_miss_latency::.switch_cpus.inst 81523.480663                       # average overall miss latency
system.l2.overall_avg_miss_latency::.switch_cpus.data 101891.744541                       # average overall miss latency
system.l2.overall_avg_miss_latency::total 101598.878328                       # average overall miss latency
system.l2.blocked_cycles::no_mshrs                  0                       # number of cycles access was blocked
system.l2.blocked_cycles::no_targets                0                       # number of cycles access was blocked
system.l2.blocked::no_mshrs                         0                       # number of cycles access was blocked
system.l2.blocked::no_targets                       0                       # number of cycles access was blocked
system.l2.avg_blocked_cycles::no_mshrs            nan                       # average number of cycles each access was blocked
system.l2.avg_blocked_cycles::no_targets          nan                       # average number of cycles each access was blocked
system.l2.writebacks::.writebacks               30862                       # number of writebacks
system.l2.writebacks::total                     30862                       # number of writebacks
system.l2.demand_mshr_misses::.switch_cpus.inst         1448                       # number of demand (read+write) MSHR misses
system.l2.demand_mshr_misses::.switch_cpus.data       101339                       # number of demand (read+write) MSHR misses
system.l2.demand_mshr_misses::total            102787                       # number of demand (read+write) MSHR misses
system.l2.overall_mshr_misses::.switch_cpus.inst         1448                       # number of overall MSHR misses
system.l2.overall_mshr_misses::.switch_cpus.data       101339                       # number of overall MSHR misses
system.l2.overall_mshr_misses::total           102787                       # number of overall MSHR misses
system.l2.demand_mshr_miss_latency::.switch_cpus.inst    103566000                       # number of demand (read+write) MSHR miss cycles
system.l2.demand_mshr_miss_latency::.switch_cpus.data   9312237500                       # number of demand (read+write) MSHR miss cycles
system.l2.demand_mshr_miss_latency::total   9415803500                       # number of demand (read+write) MSHR miss cycles
system.l2.overall_mshr_miss_latency::.switch_cpus.inst    103566000                       # number of overall MSHR miss cycles
system.l2.overall_mshr_miss_latency::.switch_cpus.data   9312237500                       # number of overall MSHR miss cycles
system.l2.overall_mshr_miss_latency::total   9415803500                       # number of overall MSHR miss cycles
system.l2.demand_mshr_miss_rate::.switch_cpus.inst     0.630387                       # mshr miss rate for demand accesses
system.l2.demand_mshr_miss_rate::.switch_cpus.data     0.855095                       # mshr miss rate for demand accesses
system.l2.demand_mshr_miss_rate::total       0.850780                       # mshr miss rate for demand accesses
system.l2.overall_mshr_miss_rate::.switch_cpus.inst     0.630387                       # mshr miss rate for overall accesses
system.l2.overall_mshr_miss_rate::.switch_cpus.data     0.855095                       # mshr miss rate for overall accesses
system.l2.overall_mshr_miss_rate::total      0.850780                       # mshr miss rate for overall accesses
system.l2.demand_avg_mshr_miss_latency::.switch_cpus.inst 71523.480663                       # average overall mshr miss latency
system.l2.demand_avg_mshr_miss_latency::.switch_cpus.data 91891.941898                       # average overall mshr miss latency
system.l2.demand_avg_mshr_miss_latency::total 91605.003551                       # average overall mshr miss latency
system.l2.overall_avg_mshr_miss_latency::.switch_cpus.inst 71523.480663                       # average overall mshr miss latency
system.l2.overall_avg_mshr_miss_latency::.switch_cpus.data 91891.941898                       # average overall mshr miss latency
system.l2.overall_avg_mshr_miss_latency::total 91605.003551                       # average overall mshr miss latency
system.l2.replacements                         131799                       # number of replacements
system.l2.WritebackDirty_hits::.writebacks        45504                       # number of WritebackDirty hits
system.l2.WritebackDirty_hits::total            45504                       # number of WritebackDirty hits
system.l2.WritebackDirty_accesses::.writebacks        45504                       # number of WritebackDirty accesses(hits+misses)
system.l2.WritebackDirty_accesses::total        45504                       # number of WritebackDirty accesses(hits+misses)
system.l2.WritebackClean_hits::.writebacks         1786                       # number of WritebackClean hits
system.l2.WritebackClean_hits::total             1786                       # number of WritebackClean hits
system.l2.WritebackClean_accesses::.writebacks         1786                       # number of WritebackClean accesses(hits+misses)
system.l2.WritebackClean_accesses::total         1786                       # number of WritebackClean accesses(hits+misses)
system.l2.CleanEvict_mshr_misses::.writebacks        65729                       # number of CleanEvict MSHR misses
system.l2.CleanEvict_mshr_misses::total         65729                       # number of CleanEvict MSHR misses
system.l2.CleanEvict_mshr_miss_rate::.writebacks          inf                       # mshr miss rate for CleanEvict accesses
system.l2.CleanEvict_mshr_miss_rate::total          inf                       # mshr miss rate for CleanEvict accesses
system.l2.UpgradeReq_misses::.switch_cpus.data            3                       # number of UpgradeReq misses
system.l2.UpgradeReq_misses::total                  3                       # number of UpgradeReq misses
system.l2.UpgradeReq_accesses::.switch_cpus.data            3                       # number of UpgradeReq accesses(hits+misses)
system.l2.UpgradeReq_accesses::total                3                       # number of UpgradeReq accesses(hits+misses)
system.l2.UpgradeReq_miss_rate::.switch_cpus.data            1                       # miss rate for UpgradeReq accesses
system.l2.UpgradeReq_miss_rate::total               1                       # miss rate for UpgradeReq accesses
system.l2.UpgradeReq_mshr_misses::.switch_cpus.data            3                       # number of UpgradeReq MSHR misses
system.l2.UpgradeReq_mshr_misses::total             3                       # number of UpgradeReq MSHR misses
system.l2.UpgradeReq_mshr_miss_latency::.switch_cpus.data        59500                       # number of UpgradeReq MSHR miss cycles
system.l2.UpgradeReq_mshr_miss_latency::total        59500                       # number of UpgradeReq MSHR miss cycles
system.l2.UpgradeReq_mshr_miss_rate::.switch_cpus.data            1                       # mshr miss rate for UpgradeReq accesses
system.l2.UpgradeReq_mshr_miss_rate::total            1                       # mshr miss rate for UpgradeReq accesses
system.l2.UpgradeReq_avg_mshr_miss_latency::.switch_cpus.data 19833.333333                       # average UpgradeReq mshr miss latency
system.l2.UpgradeReq_avg_mshr_miss_latency::total 19833.333333                       # average UpgradeReq mshr miss latency
system.l2.ReadExReq_hits::.switch_cpus.data         4765                       # number of ReadExReq hits
system.l2.ReadExReq_hits::total                  4765                       # number of ReadExReq hits
system.l2.ReadExReq_misses::.switch_cpus.data        30886                       # number of ReadExReq misses
system.l2.ReadExReq_misses::total               30886                       # number of ReadExReq misses
system.l2.ReadExReq_miss_latency::.switch_cpus.data   3041733500                       # number of ReadExReq miss cycles
system.l2.ReadExReq_miss_latency::total    3041733500                       # number of ReadExReq miss cycles
system.l2.ReadExReq_accesses::.switch_cpus.data        35651                       # number of ReadExReq accesses(hits+misses)
system.l2.ReadExReq_accesses::total             35651                       # number of ReadExReq accesses(hits+misses)
system.l2.ReadExReq_miss_rate::.switch_cpus.data     0.866343                       # miss rate for ReadExReq accesses
system.l2.ReadExReq_miss_rate::total         0.866343                       # miss rate for ReadExReq accesses
system.l2.ReadExReq_avg_miss_latency::.switch_cpus.data 98482.597293                       # average ReadExReq miss latency
system.l2.ReadExReq_avg_miss_latency::total 98482.597293                       # average ReadExReq miss latency
system.l2.ReadExReq_mshr_misses::.switch_cpus.data        30886                       # number of ReadExReq MSHR misses
system.l2.ReadExReq_mshr_misses::total          30886                       # number of ReadExReq MSHR misses
system.l2.ReadExReq_mshr_miss_latency::.switch_cpus.data   2732873500                       # number of ReadExReq MSHR miss cycles
system.l2.ReadExReq_mshr_miss_latency::total   2732873500                       # number of ReadExReq MSHR miss cycles
system.l2.ReadExReq_mshr_miss_rate::.switch_cpus.data     0.866343                       # mshr miss rate for ReadExReq accesses
[...]
system.cpu.itb_walker_cache.tags.tag_accesses            0                       # Number of tag accesses
system.cpu.itb_walker_cache.tags.data_accesses            0                       # Number of data accesses
system.cpu.itb.walker.pwrStateResidencyTicks::UNDEFINED 371692419911000                       # Cumulative time (in ticks) in various power states
system.cpu.dtb_walker_cache.pwrStateResidencyTicks::UNDEFINED 371692419911000                       # Cumulative time (in ticks) in various power states
system.cpu.dtb_walker_cache.blocked_cycles::no_mshrs            0                       # number of cycles access was blocked
system.cpu.dtb_walker_cache.blocked_cycles::no_targets            0                       # number of cycles access was blocked
system.cpu.dtb_walker_cache.blocked::no_mshrs            0                       # number of cycles access was blocked
system.cpu.dtb_walker_cache.blocked::no_targets            0                       # number of cycles access was blocked
system.cpu.dtb_walker_cache.avg_blocked_cycles::no_mshrs          nan                       # average number of cycles each access was blocked
system.cpu.dtb_walker_cache.avg_blocked_cycles::no_targets          nan                       # average number of cycles each access was blocked
system.cpu.dtb_walker_cache.replacements            0                       # number of replacements
system.cpu.dtb_walker_cache.tags.pwrStateResidencyTicks::UNDEFINED 371692419911000                       # Cumulative time (in ticks) in various power states
system.cpu.dtb_walker_cache.tags.tagsinuse            0                       # Cycle average of tags in use
system.cpu.dtb_walker_cache.tags.total_refs            0                       # Total number of references to valid blocks.
system.cpu.dtb_walker_cache.tags.sampled_refs            0                       # Sample count of references to valid blocks.
system.cpu.dtb_walker_cache.tags.avg_refs          nan                       # Average number of references to valid blocks.
system.cpu.dtb_walker_cache.tags.warmup_cycle            0                       # Cycle when the warmup percentage was hit.
system.cpu.dtb_walker_cache.tags.tag_accesses            0                       # Number of tag accesses
system.cpu.dtb_walker_cache.tags.data_accesses            0                       # Number of data accesses
system.cpu.dcache.pwrStateResidencyTicks::UNDEFINED 371692419911000                       # Cumulative time (in ticks) in various power states
system.cpu.dcache.demand_hits::.cpu.data            4                       # number of demand (read+write) hits
system.cpu.dcache.demand_hits::.switch_cpus.data     37014713                       # number of demand (read+write) hits
system.cpu.dcache.demand_hits::total         37014717                       # number of demand (read+write) hits
system.cpu.dcache.overall_hits::.cpu.data            4                       # number of overall hits
system.cpu.dcache.overall_hits::.switch_cpus.data     37074993                       # number of overall hits
system.cpu.dcache.overall_hits::total        37074997                       # number of overall hits
system.cpu.dcache.demand_misses::.cpu.data            4                       # number of demand (read+write) misses
system.cpu.dcache.demand_misses::.switch_cpus.data       661793                       # number of demand (read+write) misses
system.cpu.dcache.demand_misses::total         661797                       # number of demand (read+write) misses
system.cpu.dcache.overall_misses::.cpu.data            4                       # number of overall misses
system.cpu.dcache.overall_misses::.switch_cpus.data       675055                       # number of overall misses
system.cpu.dcache.overall_misses::total        675059                       # number of overall misses
system.cpu.dcache.demand_miss_latency::.switch_cpus.data  56168378976                       # number of demand (read+write) miss cycles
system.cpu.dcache.demand_miss_latency::total  56168378976                       # number of demand (read+write) miss cycles
system.cpu.dcache.overall_miss_latency::.switch_cpus.data  56168378976                       # number of overall miss cycles
system.cpu.dcache.overall_miss_latency::total  56168378976                       # number of overall miss cycles
system.cpu.dcache.demand_accesses::.cpu.data            8                       # number of demand (read+write) accesses
system.cpu.dcache.demand_accesses::.switch_cpus.data     37676506                       # number of demand (read+write) accesses
system.cpu.dcache.demand_accesses::total     37676514                       # number of demand (read+write) accesses
system.cpu.dcache.overall_accesses::.cpu.data            8                       # number of overall (read+write) accesses
system.cpu.dcache.overall_accesses::.switch_cpus.data     37750048                       # number of overall (read+write) accesses
system.cpu.dcache.overall_accesses::total     37750056                       # number of overall (read+write) accesses
system.cpu.dcache.demand_miss_rate::.cpu.data     0.500000                       # miss rate for demand accesses
system.cpu.dcache.demand_miss_rate::.switch_cpus.data     0.017565                       # miss rate for demand accesses
system.cpu.dcache.demand_miss_rate::total     0.017565                       # miss rate for demand accesses
system.cpu.dcache.overall_miss_rate::.cpu.data     0.500000                       # miss rate for overall accesses
system.cpu.dcache.overall_miss_rate::.switch_cpus.data     0.017882                       # miss rate for overall accesses
system.cpu.dcache.overall_miss_rate::total     0.017882                       # miss rate for overall accesses
system.cpu.dcache.demand_avg_miss_latency::.switch_cpus.data 84873.032770                       # average overall miss latency
system.cpu.dcache.demand_avg_miss_latency::total 84872.519785                       # average overall miss latency
system.cpu.dcache.overall_avg_miss_latency::.switch_cpus.data 83205.633579                       # average overall miss latency
system.cpu.dcache.overall_avg_miss_latency::total 83205.140552                       # average overall miss latency
system.cpu.dcache.blocked_cycles::no_mshrs      7755723                       # number of cycles access was blocked
system.cpu.dcache.blocked_cycles::no_targets           68                       # number of cycles access was blocked
system.cpu.dcache.blocked::no_mshrs            114309                       # number of cycles access was blocked
system.cpu.dcache.blocked::no_targets               2                       # number of cycles access was blocked
system.cpu.dcache.avg_blocked_cycles::no_mshrs    67.848752                       # average number of cycles each access was blocked
system.cpu.dcache.avg_blocked_cycles::no_targets           34                       # average number of cycles each access was blocked
system.cpu.dcache.writebacks::.writebacks       179999                       # number of writebacks
system.cpu.dcache.writebacks::total            179999                       # number of writebacks
system.cpu.dcache.demand_mshr_hits::.switch_cpus.data       215780                       # number of demand (read+write) MSHR hits
system.cpu.dcache.demand_mshr_hits::total       215780                       # number of demand (read+write) MSHR hits
system.cpu.dcache.overall_mshr_hits::.switch_cpus.data       215780                       # number of overall MSHR hits
system.cpu.dcache.overall_mshr_hits::total       215780                       # number of overall MSHR hits
system.cpu.dcache.demand_mshr_misses::.switch_cpus.data       446013                       # number of demand (read+write) MSHR misses
system.cpu.dcache.demand_mshr_misses::total       446013                       # number of demand (read+write) MSHR misses
system.cpu.dcache.overall_mshr_misses::.switch_cpus.data       451454                       # number of overall MSHR misses
system.cpu.dcache.overall_mshr_misses::total       451454                       # number of overall MSHR misses
system.cpu.dcache.demand_mshr_miss_latency::.switch_cpus.data  39035254476                       # number of demand (read+write) MSHR miss cycles
system.cpu.dcache.demand_mshr_miss_latency::total  39035254476                       # number of demand (read+write) MSHR miss cycles
system.cpu.dcache.overall_mshr_miss_latency::.switch_cpus.data  39522678976                       # number of overall MSHR miss cycles
system.cpu.dcache.overall_mshr_miss_latency::total  39522678976                       # number of overall MSHR miss cycles
system.cpu.dcache.demand_mshr_miss_rate::.switch_cpus.data     0.011838                       # mshr miss rate for demand accesses
system.cpu.dcache.demand_mshr_miss_rate::total     0.011838                       # mshr miss rate for demand accesses
system.cpu.dcache.overall_mshr_miss_rate::.switch_cpus.data     0.011959                       # mshr miss rate for overall accesses
system.cpu.dcache.overall_mshr_miss_rate::total     0.011959                       # mshr miss rate for overall accesses
system.cpu.dcache.demand_avg_mshr_miss_latency::.switch_cpus.data 87520.441054                       # average overall mshr miss latency
system.cpu.dcache.demand_avg_mshr_miss_latency::total 87520.441054                       # average overall mshr miss latency
system.cpu.dcache.overall_avg_mshr_miss_latency::.switch_cpus.data 87545.306888                       # average overall mshr miss latency
system.cpu.dcache.overall_avg_mshr_miss_latency::total 87545.306888                       # average overall mshr miss latency
system.cpu.dcache.replacements                 450431                       # number of replacements
system.cpu.dcache.ReadReq_hits::.cpu.data            4                       # number of ReadReq hits
system.cpu.dcache.ReadReq_hits::.switch_cpus.data     28160006                       # number of ReadReq hits
system.cpu.dcache.ReadReq_hits::total        28160010                       # number of ReadReq hits
system.cpu.dcache.ReadReq_misses::.cpu.data            4                       # number of ReadReq misses
system.cpu.dcache.ReadReq_misses::.switch_cpus.data       533783                       # number of ReadReq misses
system.cpu.dcache.ReadReq_misses::total        533787                       # number of ReadReq misses
system.cpu.dcache.ReadReq_miss_latency::.switch_cpus.data  44907379500                       # number of ReadReq miss cycles
system.cpu.dcache.ReadReq_miss_latency::total  44907379500                       # number of ReadReq miss cycles
system.cpu.dcache.ReadReq_accesses::.cpu.data            8                       # number of ReadReq accesses(hits+misses)
system.cpu.dcache.ReadReq_accesses::.switch_cpus.data     28693789                       # number of ReadReq accesses(hits+misses)
system.cpu.dcache.ReadReq_accesses::total     28693797                       # number of ReadReq accesses(hits+misses)
system.cpu.dcache.ReadReq_miss_rate::.cpu.data     0.500000                       # miss rate for ReadReq accesses
system.cpu.dcache.ReadReq_miss_rate::.switch_cpus.data     0.018603                       # miss rate for ReadReq accesses
system.cpu.dcache.ReadReq_miss_rate::total     0.018603                       # miss rate for ReadReq accesses
system.cpu.dcache.ReadReq_avg_miss_latency::.switch_cpus.data 84130.404116                       # average ReadReq miss latency
system.cpu.dcache.ReadReq_avg_miss_latency::total 84129.773674                       # average ReadReq miss latency
system.cpu.dcache.ReadReq_mshr_hits::.switch_cpus.data       215699                       # number of ReadReq MSHR hits
system.cpu.dcache.ReadReq_mshr_hits::total       215699                       # number of ReadReq MSHR hits
system.cpu.dcache.ReadReq_mshr_misses::.switch_cpus.data       318084                       # number of ReadReq MSHR misses
system.cpu.dcache.ReadReq_mshr_misses::total       318084                       # number of ReadReq MSHR misses
system.cpu.dcache.ReadReq_mshr_miss_latency::.switch_cpus.data  27903129000                       # number of ReadReq MSHR miss cycles
system.cpu.dcache.ReadReq_mshr_miss_latency::total  27903129000                       # number of ReadReq MSHR miss cycles
system.cpu.dcache.ReadReq_mshr_miss_rate::.switch_cpus.data     0.011085                       # mshr miss rate for ReadReq accesses
system.cpu.dcache.ReadReq_mshr_miss_rate::total     0.011085                       # mshr miss rate for ReadReq accesses
system.cpu.dcache.ReadReq_avg_mshr_miss_latency::.switch_cpus.data 87722.516694                       # average ReadReq mshr miss latency
system.cpu.dcache.ReadReq_avg_mshr_miss_latency::total 87722.516694                       # average ReadReq mshr miss latency
system.cpu.dcache.WriteReq_hits::.switch_cpus.data      8854707                       # number of WriteReq hits
system.cpu.dcache.WriteReq_hits::total        8854707                       # number of WriteReq hits
system.cpu.dcache.WriteReq_misses::.switch_cpus.data       128010                       # number of WriteReq misses
system.cpu.dcache.WriteReq_misses::total       128010                       # number of WriteReq misses
system.cpu.dcache.WriteReq_miss_latency::.switch_cpus.data  11260999476                       # number of WriteReq miss cycles
system.cpu.dcache.WriteReq_miss_latency::total  11260999476                       # number of WriteReq miss cycles
system.cpu.dcache.WriteReq_accesses::.switch_cpus.data      8982717                       # number of WriteReq accesses(hits+misses)
system.cpu.dcache.WriteReq_accesses::total      8982717                       # number of WriteReq accesses(hits+misses)
system.cpu.dcache.WriteReq_miss_rate::.switch_cpus.data     0.014251                       # miss rate for WriteReq accesses
system.cpu.dcache.WriteReq_miss_rate::total     0.014251                       # miss rate for WriteReq accesses
system.cpu.dcache.WriteReq_avg_miss_latency::.switch_cpus.data 87969.685775                       # average WriteReq miss latency
system.cpu.dcache.WriteReq_avg_miss_latency::total 87969.685775                       # average WriteReq miss latency
system.cpu.dcache.WriteReq_mshr_hits::.switch_cpus.data           81                       # number of WriteReq MSHR hits
system.cpu.dcache.WriteReq_mshr_hits::total           81                       # number of WriteReq MSHR hits
system.cpu.dcache.WriteReq_mshr_misses::.switch_cpus.data       127929                       # number of WriteReq MSHR misses
system.cpu.dcache.WriteReq_mshr_misses::total       127929                       # number of WriteReq MSHR misses
system.cpu.dcache.WriteReq_mshr_miss_latency::.switch_cpus.data  11132125476                       # number of WriteReq MSHR miss cycles
system.cpu.dcache.WriteReq_mshr_miss_latency::total  11132125476                       # number of WriteReq MSHR miss cycles
system.cpu.dcache.WriteReq_mshr_miss_rate::.switch_cpus.data     0.014242                       # mshr miss rate for WriteReq accesses
system.cpu.dcache.WriteReq_mshr_miss_rate::total     0.014242                       # mshr miss rate for WriteReq accesses
system.cpu.dcache.WriteReq_avg_mshr_miss_latency::.switch_cpus.data 87017.998077                       # average WriteReq mshr miss latency
system.cpu.dcache.WriteReq_avg_mshr_miss_latency::total 87017.998077                       # average WriteReq mshr miss latency
system.cpu.dcache.SoftPFReq_hits::.switch_cpus.data        60280                       # number of SoftPFReq hits
system.cpu.dcache.SoftPFReq_hits::total         60280                       # number of SoftPFReq hits
system.cpu.dcache.SoftPFReq_misses::.switch_cpus.data        13262                       # number of SoftPFReq misses
system.cpu.dcache.SoftPFReq_misses::total        13262                       # number of SoftPFReq misses
system.cpu.dcache.SoftPFReq_accesses::.switch_cpus.data        73542                       # number of SoftPFReq accesses(hits+misses)
system.cpu.dcache.SoftPFReq_accesses::total        73542                       # number of SoftPFReq accesses(hits+misses)
system.cpu.dcache.SoftPFReq_miss_rate::.switch_cpus.data     0.180332                       # miss rate for SoftPFReq accesses
system.cpu.dcache.SoftPFReq_miss_rate::total     0.180332                       # miss rate for SoftPFReq accesses
system.cpu.dcache.SoftPFReq_mshr_misses::.switch_cpus.data         5441                       # number of SoftPFReq MSHR misses
system.cpu.dcache.SoftPFReq_mshr_misses::total         5441                       # number of SoftPFReq MSHR misses
system.cpu.dcache.SoftPFReq_mshr_miss_latency::.switch_cpus.data    487424500                       # number of SoftPFReq MSHR miss cycles
system.cpu.dcache.SoftPFReq_mshr_miss_latency::total    487424500                       # number of SoftPFReq MSHR miss cycles
system.cpu.dcache.SoftPFReq_mshr_miss_rate::.switch_cpus.data     0.073985                       # mshr miss rate for SoftPFReq accesses
system.cpu.dcache.SoftPFReq_mshr_miss_rate::total     0.073985                       # mshr miss rate for SoftPFReq accesses
system.cpu.dcache.SoftPFReq_avg_mshr_miss_latency::.switch_cpus.data 89583.624334                       # average SoftPFReq mshr miss latency
system.cpu.dcache.SoftPFReq_avg_mshr_miss_latency::total 89583.624334                       # average SoftPFReq mshr miss latency
system.cpu.dcache.tags.pwrStateResidencyTicks::UNDEFINED 371692419911000                       # Cumulative time (in ticks) in various power states
system.cpu.dcache.tags.tagsinuse             0.086109                       # Cycle average of tags in use
system.cpu.dcache.tags.total_refs            37526455                       # Total number of references to valid blocks.
system.cpu.dcache.tags.sampled_refs            451455                       # Sample count of references to valid blocks.
system.cpu.dcache.tags.avg_refs             83.123357                       # Average number of references to valid blocks.
system.cpu.dcache.tags.warmup_cycle      371661094883500                       # Cycle when the warmup percentage was hit.
system.cpu.dcache.tags.occ_blocks::.cpu.data     0.000004                       # Average occupied blocks per requestor
system.cpu.dcache.tags.occ_blocks::.switch_cpus.data     0.086105                       # Average occupied blocks per requestor
system.cpu.dcache.tags.occ_percent::.cpu.data     0.000000                       # Average percentage of cache occupancy
system.cpu.dcache.tags.occ_percent::.switch_cpus.data     0.000084                       # Average percentage of cache occupancy
system.cpu.dcache.tags.occ_percent::total     0.000084                       # Average percentage of cache occupancy
system.cpu.dcache.tags.occ_task_id_blocks::1024         1024                       # Occupied blocks per task id
system.cpu.dcache.tags.age_task_id_blocks_1024::0          117                       # Occupied blocks per task id
system.cpu.dcache.tags.age_task_id_blocks_1024::1          773                       # Occupied blocks per task id
system.cpu.dcache.tags.age_task_id_blocks_1024::2          125                       # Occupied blocks per task id
system.cpu.dcache.tags.age_task_id_blocks_1024::3            9                       # Occupied blocks per task id
system.cpu.dcache.tags.occ_task_id_percent::1024            1                       # Percentage of cache occupancy per task id
system.cpu.dcache.tags.tag_accesses          75951567                       # Number of tag accesses
system.cpu.dcache.tags.data_accesses         75951567                       # Number of data accesses

---------- End Simulation Statistics   ----------
