
---------- Begin Simulation Statistics ----------
final_tick                               371669744966500                       # Number of ticks from beginning of simulation (restored from checkpoints and never reset)
host_inst_rate                                  37866                       # Simulator instruction rate (inst/s)
host_mem_usage                                 898928                       # Number of bytes of host memory used
host_op_rate                                    84724                       # Simulator op (including micro ops) rate (op/s)
host_seconds                                   264.09                       # Real time elapsed on the host
host_tick_rate                               32754491                       # Simulator tick rate (ticks/s)
sim_freq                                 1000000000000                       # Frequency of simulated ticks
sim_insts                                    10000006                       # Number of instructions simulated
sim_ops                                      22374673                       # Number of ops (including micro ops) simulated
sim_seconds                                  0.008650                       # Number of seconds simulated
sim_ticks                                  8650084000                       # Number of ticks simulated
system.cpu.committedInsts                           5                       # Number of instructions committed
system.cpu.committedOps                            17                       # Number of ops (including micro ops) committed
system.cpu.dtb.rdAccesses                           8                       # TLB accesses on read requests
system.cpu.dtb.rdMisses                             0                       # TLB misses on read requests
system.cpu.dtb.wrAccesses                           0                       # TLB accesses on write requests
system.cpu.dtb.wrMisses                             0                       # TLB misses on write requests
system.cpu.idle_fraction                            0                       # Percentage of idle cycles
system.cpu.itb.rdAccesses                           0                       # TLB accesses on read requests
system.cpu.itb.rdMisses                             0                       # TLB misses on read requests
system.cpu.itb.wrAccesses                          10                       # TLB accesses on write requests
system.cpu.itb.wrMisses                             0                       # TLB misses on write requests
system.cpu.not_idle_fraction                        1                       # Percentage of non-idle cycles
system.cpu.numCycles                               22                       # number of cpu cycles simulated
system.cpu.numWorkItemsCompleted                    0                       # number of work items this cpu completed
system.cpu.numWorkItemsStarted                      0                       # number of work items this cpu started
system.cpu.num_busy_cycles                         22                       # Number of busy cycles
system.cpu.num_conditional_control_insts            0                       # number of instructions that are conditional controls
system.cpu.num_fp_alu_accesses                     16                       # Number of float alu accesses
system.cpu.num_fp_insts                            16                       # number of float instructions
system.cpu.num_fp_register_reads                   24                       # number of times the floating registers were read
system.cpu.num_fp_register_writes                  16                       # number of times the floating registers were written
system.cpu.num_func_calls                           0                       # number of times a function call or return occured
system.cpu.num_idle_cycles                          0                       # Number of idle cycles
system.cpu.num_int_alu_accesses                     9                       # Number of integer alu accesses
system.cpu.num_int_insts                            9                       # number of integer instructions
system.cpu.num_int_register_reads                  25                       # number of times the integer registers were read
system.cpu.num_int_register_writes                  1                       # number of times the integer registers were written
system.cpu.num_load_insts                           8                       # Number of load instructions
system.cpu.num_mem_refs                             8                       # number of memory refs
system.cpu.num_store_insts                          0                       # Number of store instructions
system.cpu.num_vec_alu_accesses                     0                       # Number of vector alu accesses
system.cpu.num_vec_insts                            0                       # number of vector instructions
system.cpu.num_vec_register_reads                   0                       # number of times the vector registers were read
system.cpu.num_vec_register_writes                  0                       # number of times the vector registers were written
system.cpu.op_class::No_OpClass                     0      0.00%      0.00% # Class of executed instruction
system.cpu.op_class::IntAlu                         1      5.88%      5.88% # Class of executed instruction
system.cpu.op_class::IntMult                        0      0.00%      5.88% # Class of executed instruction
system.cpu.op_class::IntDiv                         0      0.00%      5.88% # Class of executed instruction
system.cpu.op_class::FloatAdd                       0      0.00%      5.88% # Class of executed instruction
system.cpu.op_class::FloatCmp                       0      0.00%      5.88% # Class of executed instruction
system.cpu.op_class::FloatCvt                       0      0.00%      5.88% # Class of executed instruction
system.cpu.op_class::FloatMult                      0      0.00%      5.88% # Class of executed instruction
system.cpu.op_class::FloatMultAcc                   0      0.00%      5.88% # Class of executed instruction
system.cpu.op_class::FloatDiv                       0      0.00%      5.88% # Class of executed instruction
system.cpu.op_class::FloatMisc                      0      0.00%      5.88% # Class of executed instruction
system.cpu.op_class::FloatSqrt                      0      0.00%      5.88% # Class of executed instruction
system.cpu.op_class::SimdAdd                        0      0.00%      5.88% # Class of executed instruction
system.cpu.op_class::SimdAddAcc                     0      0.00%      5.88% # Class of executed instruction
system.cpu.op_class::SimdAlu                        0      0.00%      5.88% # Class of executed instruction
system.cpu.op_class::SimdCmp                        0      0.00%      5.88% # Class of executed instruction
system.cpu.op_class::SimdCvt                        0      0.00%      5.88% # Class of executed instruction
system.cpu.op_class::SimdMisc                       0      0.00%      5.88% # Class of executed instruction
system.cpu.op_class::SimdMult                       0      0.00%      5.88% # Class of executed instruction
system.cpu.op_class::SimdMultAcc                    0      0.00%      5.88% # Class of executed instruction
system.cpu.op_class::SimdShift                      0      0.00%      5.88% # Class of executed instruction
system.cpu.op_class::SimdShiftAcc                   0      0.00%      5.88% # Class of executed instruction
system.cpu.op_class::SimdDiv                        0      0.00%      5.88% # Class of executed instruction
system.cpu.op_class::SimdSqrt                       0      0.00%      5.88% # Class of executed instruction
system.cpu.op_class::SimdFloatAdd                   4     23.53%     29.41% # Class of executed instruction
system.cpu.op_class::SimdFloatAlu                   0      0.00%     29.41% # Class of executed instruction
system.cpu.op_class::SimdFloatCmp                   0      0.00%     29.41% # Class of executed instruction
system.cpu.op_class::SimdFloatCvt                   0      0.00%     29.41% # Class of executed instruction
system.cpu.op_class::SimdFloatDiv                   0      0.00%     29.41% # Class of executed instruction
system.cpu.op_class::SimdFloatMisc                  0      0.00%     29.41% # Class of executed instruction
system.cpu.op_class::SimdFloatMult                  4     23.53%     52.94% # Class of executed instruction
system.cpu.op_class::SimdFloatMultAcc               0      0.00%     52.94% # Class of executed instruction
system.cpu.op_class::SimdFloatSqrt                  0      0.00%     52.94% # Class of executed instruction
system.cpu.op_class::SimdReduceAdd                  0      0.00%     52.94% # Class of executed instruction
system.cpu.op_class::SimdReduceAlu                  0      0.00%     52.94% # Class of executed instruction
system.cpu.op_class::SimdReduceCmp                  0      0.00%     52.94% # Class of executed instruction
system.cpu.op_class::SimdFloatReduceAdd             0      0.00%     52.94% # Class of executed instruction
system.cpu.op_class::SimdFloatReduceCmp             0      0.00%     52.94% # Class of executed instruction
system.cpu.op_class::SimdAes                        0      0.00%     52.94% # Class of executed instruction
system.cpu.op_class::SimdAesMix                     0      0.00%     52.94% # Class of executed instruction
system.cpu.op_class::SimdSha1Hash                   0      0.00%     52.94% # Class of executed instruction
system.cpu.op_class::SimdSha1Hash2                  0      0.00%     52.94% # Class of executed instruction
system.cpu.op_class::SimdSha256Hash                 0      0.00%     52.94% # Class of executed instruction
system.cpu.op_class::SimdSha256Hash2                0      0.00%     52.94% # Class of executed instruction
system.cpu.op_class::SimdShaSigma2                  0      0.00%     52.94% # Class of executed instruction
system.cpu.op_class::SimdShaSigma3                  0      0.00%     52.94% # Class of executed instruction
system.cpu.op_class::SimdPredAlu                    0      0.00%     52.94% # Class of executed instruction
system.cpu.op_class::MemRead                        0      0.00%     52.94% # Class of executed instruction
system.cpu.op_class::MemWrite                       0      0.00%     52.94% # Class of executed instruction
system.cpu.op_class::FloatMemRead                   8     47.06%    100.00% # Class of executed instruction
system.cpu.op_class::FloatMemWrite                  0      0.00%    100.00% # Class of executed instruction
system.cpu.op_class::IprAccess                      0      0.00%    100.00% # Class of executed instruction
system.cpu.op_class::InstPrefetch                   0      0.00%    100.00% # Class of executed instruction
system.cpu.op_class::total                         17                       # Class of executed instruction
system.cpu.workload.numSyscalls                     5                       # Number of system calls
system.membus.snoop_filter.hit_multi_requests            0                       # Number of requests hitting in the snoop filter with multiple (>1) holders of the requested data.
system.membus.snoop_filter.hit_multi_snoops            0                       # Number of snoops hitting in the snoop filter with multiple (>1) holders of the requested data.
system.membus.snoop_filter.hit_single_requests       101999                       # Number of requests hitting in the snoop filter with a single holder of the requested data.
system.membus.snoop_filter.hit_single_snoops            0                       # Number of snoops hitting in the snoop filter with a single holder of the requested data.
system.membus.snoop_filter.tot_requests        208606                       # Total number of requests made to the snoop filter.
system.membus.snoop_filter.tot_snoops               0                       # Total number of snoops made to the snoop filter.
system.switch_cpus.branchPred.BTBCorrect            0                       # Number of correct BTB predictions (this stat may not work properly.
system.switch_cpus.branchPred.BTBHitPct      0.000000                       # BTB Hit Percentage
system.switch_cpus.branchPred.BTBHits               0                       # Number of BTB hits
system.switch_cpus.branchPred.BTBLookups       129039                       # Number of BTB lookups
system.switch_cpus.branchPred.RASInCorrect           31                       # Number of incorrect RAS predictions.
system.switch_cpus.branchPred.condIncorrect         6364                       # Number of conditional branches incorrect
system.switch_cpus.branchPred.condPredicted       146034                       # Number of conditional branches predicted
system.switch_cpus.branchPred.indirectHits        69533                       # Number of indirect target hits.
system.switch_cpus.branchPred.indirectLookups       129039                       # Number of indirect predictor lookups.
system.switch_cpus.branchPred.indirectMisses        59506                       # Number of indirect misses.
system.switch_cpus.branchPred.lookups          176815                       # Number of BP lookups
system.switch_cpus.branchPred.usedRAS           17624                       # Number of times the RAS was used to get a target.
system.switch_cpus.branchPredindirectMispredicted         4150                       # Number of mispredicted indirect branches.
system.switch_cpus.cc_regfile_reads            717094                       # number of cc regfile reads
system.switch_cpus.cc_regfile_writes           610398                       # number of cc regfile writes
system.switch_cpus.commit.amos                      0                       # Number of atomic instructions committed
system.switch_cpus.commit.branchMispredicts         6517                       # The number of times a branch was mispredicted
system.switch_cpus.commit.branches             106288                       # Number of branches committed
system.switch_cpus.commit.bw_lim_events       1540948                       # number cycles where commit BW limit reached
system.switch_cpus.commit.commitNonSpecStalls          405                       # The number of times commit has been forced to stall to communicate backwards
system.switch_cpus.commit.commitSquashedInsts       781034                       # The number of squashed insts skipped by commit
system.switch_cpus.commit.committedInsts     10000001                       # Number of instructions committed
system.switch_cpus.commit.committedOps       22374656                       # Number of ops (including micro ops) committed
system.switch_cpus.commit.committed_per_cycle::samples     17075347                       # Number of insts commited each cycle
system.switch_cpus.commit.committed_per_cycle::mean     1.310349                       # Number of insts commited each cycle
system.switch_cpus.commit.committed_per_cycle::stdev     2.565808                       # Number of insts commited each cycle
system.switch_cpus.commit.committed_per_cycle::underflows            0      0.00%      0.00% # Number of insts commited each cycle
system.switch_cpus.commit.committed_per_cycle::0     12371180     72.45%     72.45% # Number of insts commited each cycle
system.switch_cpus.commit.committed_per_cycle::1       714971      4.19%     76.64% # Number of insts commited each cycle
system.switch_cpus.commit.committed_per_cycle::2       833910      4.88%     81.52% # Number of insts commited each cycle
system.switch_cpus.commit.committed_per_cycle::3       282543      1.65%     83.18% # Number of insts commited each cycle
system.switch_cpus.commit.committed_per_cycle::4       552953      3.24%     86.41% # Number of insts commited each cycle
system.switch_cpus.commit.committed_per_cycle::5       259495      1.52%     87.93% # Number of insts commited each cycle
system.switch_cpus.commit.committed_per_cycle::6       328064      1.92%     89.86% # Number of insts commited each cycle
system.switch_cpus.commit.committed_per_cycle::7       191283      1.12%     90.98% # Number of insts commited each cycle
system.switch_cpus.commit.committed_per_cycle::8      1540948      9.02%    100.00% # Number of insts commited each cycle
system.switch_cpus.commit.committed_per_cycle::overflows            0      0.00%    100.00% # Number of insts commited each cycle
system.switch_cpus.commit.committed_per_cycle::min_value            0                       # Number of insts commited each cycle
system.switch_cpus.commit.committed_per_cycle::max_value            8                       # Number of insts commited each cycle
system.switch_cpus.commit.committed_per_cycle::total     17075347                       # Number of insts commited each cycle
system.switch_cpus.commit.fp_insts           20559192                       # Number of committed floating point instructions.
system.switch_cpus.commit.function_calls         8242                       # Number of function calls committed.
system.switch_cpus.commit.int_insts          10716167                       # Number of committed integer instructions.
system.switch_cpus.commit.loads               7506752                       # Number of loads committed
system.switch_cpus.commit.membars                   0                       # Number of memory barriers committed
system.switch_cpus.commit.op_class_0::No_OpClass         3248      0.01%      0.01% # Class of committed instruction
system.switch_cpus.commit.op_class_0::IntAlu      3440241     15.38%     15.39% # Class of committed instruction
system.switch_cpus.commit.op_class_0::IntMult          647      0.00%     15.39% # Class of committed instruction
system.switch_cpus.commit.op_class_0::IntDiv          133      0.00%     15.39% # Class of committed instruction
system.switch_cpus.commit.op_class_0::FloatAdd          604      0.00%     15.40% # Class of committed instruction
system.switch_cpus.commit.op_class_0::FloatCmp            0      0.00%     15.40% # Class of committed instruction
system.switch_cpus.commit.op_class_0::FloatCvt            0      0.00%     15.40% # Class of committed instruction
system.switch_cpus.commit.op_class_0::FloatMult            0      0.00%     15.40% # Class of committed instruction
system.switch_cpus.commit.op_class_0::FloatMultAcc            0      0.00%     15.40% # Class of committed instruction
system.switch_cpus.commit.op_class_0::FloatDiv            0      0.00%     15.40% # Class of committed instruction
system.switch_cpus.commit.op_class_0::FloatMisc            0      0.00%     15.40% # Class of committed instruction
system.switch_cpus.commit.op_class_0::FloatSqrt            0      0.00%     15.40% # Class of committed instruction
system.switch_cpus.commit.op_class_0::SimdAdd          746      0.00%     15.40% # Class of committed instruction
system.switch_cpus.commit.op_class_0::SimdAddAcc            0      0.00%     15.40% # Class of committed instruction
system.switch_cpus.commit.op_class_0::SimdAlu        55789      0.25%     15.65% # Class of committed instruction
system.switch_cpus.commit.op_class_0::SimdCmp            0      0.00%     15.65% # Class of committed instruction
system.switch_cpus.commit.op_class_0::SimdCvt         4810      0.02%     15.67% # Class of committed instruction
system.switch_cpus.commit.op_class_0::SimdMisc         4991      0.02%     15.69% # Class of committed instruction
system.switch_cpus.commit.op_class_0::SimdMult            0      0.00%     15.69% # Class of committed instruction
system.switch_cpus.commit.op_class_0::SimdMultAcc            0      0.00%     15.69% # Class of committed instruction
system.switch_cpus.commit.op_class_0::SimdShift           32      0.00%     15.69% # Class of committed instruction
system.switch_cpus.commit.op_class_0::SimdShiftAcc            0      0.00%     15.69% # Class of committed instruction
system.switch_cpus.commit.op_class_0::SimdDiv            0      0.00%     15.69% # Class of committed instruction
system.switch_cpus.commit.op_class_0::SimdSqrt            0      0.00%     15.69% # Class of committed instruction
system.switch_cpus.commit.op_class_0::SimdFloatAdd      5262290     23.52%     39.21% # Class of committed instruction
system.switch_cpus.commit.op_class_0::SimdFloatAlu            0      0.00%     39.21% # Class of committed instruction
system.switch_cpus.commit.op_class_0::SimdFloatCmp            0      0.00%     39.21% # Class of committed instruction
system.switch_cpus.commit.op_class_0::SimdFloatCvt            0      0.00%     39.21% # Class of committed instruction
system.switch_cpus.commit.op_class_0::SimdFloatDiv        10955      0.05%     39.26% # Class of committed instruction
system.switch_cpus.commit.op_class_0::SimdFloatMisc            0      0.00%     39.26% # Class of committed instruction
system.switch_cpus.commit.op_class_0::SimdFloatMult      3855430     17.23%     56.49% # Class of committed instruction
system.switch_cpus.commit.op_class_0::SimdFloatMultAcc            0      0.00%     56.49% # Class of committed instruction
system.switch_cpus.commit.op_class_0::SimdFloatSqrt            0      0.00%     56.49% # Class of committed instruction
system.switch_cpus.commit.op_class_0::SimdReduceAdd            0      0.00%     56.49% # Class of committed instruction
system.switch_cpus.commit.op_class_0::SimdReduceAlu            0      0.00%     56.49% # Class of committed instruction
system.switch_cpus.commit.op_class_0::SimdReduceCmp            0      0.00%     56.49% # Class of committed instruction
system.switch_cpus.commit.op_class_0::SimdFloatReduceAdd            0      0.00%     56.49% # Class of committed instruction
system.switch_cpus.commit.op_class_0::SimdFloatReduceCmp            0      0.00%     56.49% # Class of committed instruction
system.switch_cpus.commit.op_class_0::SimdAes            0      0.00%     56.49% # Class of committed instruction
system.switch_cpus.commit.op_class_0::SimdAesMix            0      0.00%     56.49% # Class of committed instruction
system.switch_cpus.commit.op_class_0::SimdSha1Hash            0      0.00%     56.49% # Class of committed instruction
system.switch_cpus.commit.op_class_0::SimdSha1Hash2            0      0.00%     56.49% # Class of committed instruction
system.switch_cpus.commit.op_class_0::SimdSha256Hash            0      0.00%     56.49% # Class of committed instruction
system.switch_cpus.commit.op_class_0::SimdSha256Hash2            0      0.00%     56.49% # Class of committed instruction
system.switch_cpus.commit.op_class_0::SimdShaSigma2            0      0.00%     56.49% # Class of committed instruction
system.switch_cpus.commit.op_class_0::SimdShaSigma3            0      0.00%     56.49% # Class of committed instruction
system.switch_cpus.commit.op_class_0::SimdPredAlu            0      0.00%     56.49% # Class of committed instruction
system.switch_cpus.commit.op_class_0::MemRead       756767      3.38%     59.87% # Class of committed instruction
system.switch_cpus.commit.op_class_0::MemWrite        77584      0.35%     60.22% # Class of committed instruction
system.switch_cpus.commit.op_class_0::FloatMemRead      6749985     30.17%     90.39% # Class of committed instruction
system.switch_cpus.commit.op_class_0::FloatMemWrite      2150404      9.61%    100.00% # Class of committed instruction
system.switch_cpus.commit.op_class_0::IprAccess            0      0.00%    100.00% # Class of committed instruction
system.switch_cpus.commit.op_class_0::InstPrefetch            0      0.00%    100.00% # Class of committed instruction
system.switch_cpus.commit.op_class_0::total     22374656                       # Class of committed instruction
system.switch_cpus.commit.refs                9734740                       # Number of memory references committed
system.switch_cpus.commit.swp_count                 0                       # Number of s/w prefetches committed
system.switch_cpus.commit.vec_insts                 0                       # Number of committed Vector instructions.
system.switch_cpus.committedInsts            10000001                       # Number of Instructions Simulated
system.switch_cpus.committedOps              22374656                       # Number of Ops (including micro ops) Simulated
system.switch_cpus.cpi                       1.730014                       # CPI: Cycles Per Instruction
system.switch_cpus.cpi_total                 1.730014                       # CPI: Total CPI of All Threads
system.switch_cpus.decode.BlockedCycles      13174904                       # Number of cycles decode is blocked
system.switch_cpus.decode.DecodedInsts       23428397                       # Number of instructions handled by decode
system.switch_cpus.decode.IdleCycles           837644                       # Number of cycles decode is idle
system.switch_cpus.decode.RunCycles           2536934                       # Number of cycles decode is running
system.switch_cpus.decode.SquashCycles          13107                       # Number of cycles decode is squashing
system.switch_cpus.decode.UnblockCycles        618030                       # Number of cycles decode is unblocking
system.switch_cpus.dtb.rdAccesses             7693209                       # TLB accesses on read requests
system.switch_cpus.dtb.rdMisses                  1870                       # TLB misses on read requests
system.switch_cpus.dtb.wrAccesses             2377959                       # TLB accesses on write requests
system.switch_cpus.dtb.wrMisses                   728                       # TLB misses on write requests
system.switch_cpus.fetch.Branches              176815                       # Number of branches that fetch encountered
system.switch_cpus.fetch.CacheLines           1121571                       # Number of cache lines fetched
system.switch_cpus.fetch.Cycles              15964251                       # Number of cycles fetch has run and was not squashing or blocked
system.switch_cpus.fetch.IcacheSquashes          2141                       # Number of outstanding Icache misses that were squashed
system.switch_cpus.fetch.IcacheWaitRetryStallCycles           60                       # Number of stall cycles due to full MSHR
system.switch_cpus.fetch.Insts               10741186                       # Number of instructions fetch has processed
system.switch_cpus.fetch.MiscStallCycles          223                       # Number of cycles fetch has spent waiting on interrupts, or bad addresses, or out of MSHRs
system.switch_cpus.fetch.PendingTrapStallCycles         1056                       # Number of stall cycles due to pending traps
system.switch_cpus.fetch.SquashCycles           26214                       # Number of cycles fetch has spent squashing
system.switch_cpus.fetch.branchRate          0.010220                       # Number of branch fetches per cycle
system.switch_cpus.fetch.icacheStallCycles      1202259                       # Number of cycles fetch is stalled on an Icache miss
system.switch_cpus.fetch.predictedBranches        87157                       # Number of branches that fetch has predicted taken
system.switch_cpus.fetch.rate                0.620873                       # Number of inst fetches per cycle
system.switch_cpus.fetch.rateDist::samples     17180956                       # Number of instructions fetched each cycle (Total)
system.switch_cpus.fetch.rateDist::mean      1.380068                       # Number of instructions fetched each cycle (Total)
system.switch_cpus.fetch.rateDist::stdev     2.879918                       # Number of instructions fetched each cycle (Total)
system.switch_cpus.fetch.rateDist::underflows            0      0.00%      0.00% # Number of instructions fetched each cycle (Total)
system.switch_cpus.fetch.rateDist::0         13637057     79.37%     79.37% # Number of instructions fetched each cycle (Total)
system.switch_cpus.fetch.rateDist::1           108352      0.63%     80.00% # Number of instructions fetched each cycle (Total)
system.switch_cpus.fetch.rateDist::2           210951      1.23%     81.23% # Number of instructions fetched each cycle (Total)
system.switch_cpus.fetch.rateDist::3           176824      1.03%     82.26% # Number of instructions fetched each cycle (Total)
system.switch_cpus.fetch.rateDist::4           188518      1.10%     83.36% # Number of instructions fetched each cycle (Total)
system.switch_cpus.fetch.rateDist::5           148120      0.86%     84.22% # Number of instructions fetched each cycle (Total)
system.switch_cpus.fetch.rateDist::6           224328      1.31%     85.53% # Number of instructions fetched each cycle (Total)
system.switch_cpus.fetch.rateDist::7            84935      0.49%     86.02% # Number of instructions fetched each cycle (Total)
system.switch_cpus.fetch.rateDist::8          2401871     13.98%    100.00% # Number of instructions fetched each cycle (Total)
system.switch_cpus.fetch.rateDist::overflows            0      0.00%    100.00% # Number of instructions fetched each cycle (Total)
system.switch_cpus.fetch.rateDist::min_value            0                       # Number of instructions fetched each cycle (Total)
system.switch_cpus.fetch.rateDist::max_value            8                       # Number of instructions fetched each cycle (Total)
system.switch_cpus.fetch.rateDist::total     17180956                       # Number of instructions fetched each cycle (Total)
system.switch_cpus.fp_regfile_reads          34698221                       # number of floating regfile reads
system.switch_cpus.fp_regfile_writes         18491316                       # number of floating regfile writes
system.switch_cpus.idleCycles                  119190                       # Total number of cycles that the CPU has spent unscheduled due to idling
system.switch_cpus.iew.branchMispredicts         8666                       # Number of branch mispredicts detected at execute
system.switch_cpus.iew.exec_branches           137770                       # Number of branches executed
system.switch_cpus.iew.exec_nop                     0                       # number of nop insts executed
system.switch_cpus.iew.exec_rate             1.344598                       # Inst execution rate
system.switch_cpus.iew.exec_refs             10220988                       # number of memory reference insts executed
system.switch_cpus.iew.exec_stores            2377959                       # Number of stores executed
system.switch_cpus.iew.exec_swp                     0                       # number of swp insts executed
system.switch_cpus.iew.iewBlockCycles          368609                       # Number of cycles IEW is blocking
system.switch_cpus.iew.iewDispLoadInsts       7707651                       # Number of dispatched load instructions
system.switch_cpus.iew.iewDispNonSpecInsts           11                       # Number of dispatched non-speculative instructions
system.switch_cpus.iew.iewDispSquashedInsts          334                       # Number of squashed instructions skipped by dispatch
system.switch_cpus.iew.iewDispStoreInsts      2446167                       # Number of dispatched store instructions
system.switch_cpus.iew.iewDispatchedInsts     23273163                       # Number of instructions dispatched to IQ
system.switch_cpus.iew.iewExecLoadInsts       7843029                       # Number of load instructions executed
system.switch_cpus.iew.iewExecSquashedInsts        18670                       # Number of squashed instructions skipped in execute
system.switch_cpus.iew.iewExecutedInsts      23261741                       # Number of executed instructions
system.switch_cpus.iew.iewIQFullEvents           3358                       # Number of times the IQ has become full, causing a stall
system.switch_cpus.iew.iewIdleCycles                0                       # Number of cycles IEW is idle
system.switch_cpus.iew.iewLSQFullEvents       4384221                       # Number of times the LSQ has become full, causing a stall
system.switch_cpus.iew.iewSquashCycles          13107                       # Number of cycles IEW is squashing
system.switch_cpus.iew.iewUnblockCycles       4394165                       # Number of cycles IEW is unblocking
system.switch_cpus.iew.lsq.thread0.blockedLoads            0                       # Number of blocked loads due to partial load-store forwarding
system.switch_cpus.iew.lsq.thread0.cacheBlocked        29054                       # Number of times an access to memory failed due to the cache being blocked
system.switch_cpus.iew.lsq.thread0.forwLoads       545825                       # Number of loads that had data forwarded from stores
system.switch_cpus.iew.lsq.thread0.ignoredResponses           81                       # Number of memory responses ignored because the instruction is squashed
system.switch_cpus.iew.lsq.thread0.invAddrLoads            0                       # Number of loads ignored due to an invalid address
system.switch_cpus.iew.lsq.thread0.invAddrSwpfs            0                       # Number of software prefetches ignored due to an invalid address
system.switch_cpus.iew.lsq.thread0.memOrderViolation          299                       # Number of memory ordering violations
system.switch_cpus.iew.lsq.thread0.rescheduledLoads            0                       # Number of loads that were rescheduled
system.switch_cpus.iew.lsq.thread0.squashedLoads       200874                       # Number of loads squashed
system.switch_cpus.iew.lsq.thread0.squashedStores       218175                       # Number of stores squashed
system.switch_cpus.iew.memOrderViolationEvents          299                       # Number of memory order violations
system.switch_cpus.iew.predictedNotTakenIncorrect         7028                       # Number of branches that were predicted not taken incorrectly
system.switch_cpus.iew.predictedTakenIncorrect         1638                       # Number of branches that were predicted taken incorrectly
system.switch_cpus.iew.wb_consumers          28967764                       # num instructions consuming a value
system.switch_cpus.iew.wb_count              23043330                       # cumulative count of insts written-back
system.switch_cpus.iew.wb_fanout             0.606247                       # average fanout of values written-back
system.switch_cpus.iew.wb_producers          17561626                       # num instructions producing a value
system.switch_cpus.iew.wb_rate               1.331973                       # insts written-back per cycle
system.switch_cpus.iew.wb_sent               23099509                       # cumulative count of insts sent to commit
system.switch_cpus.int_regfile_reads         21973341                       # number of integer regfile reads
system.switch_cpus.int_regfile_writes         2036702                       # number of integer regfile writes
system.switch_cpus.ipc                       0.578030                       # IPC: Instructions Per Cycle
system.switch_cpus.ipc_total                 0.578030                       # IPC: Total IPC of All Threads
system.switch_cpus.iq.FU_type_0::No_OpClass        55399      0.24%      0.24% # Type of FU issued
system.switch_cpus.iq.FU_type_0::IntAlu       3796624     16.31%     16.55% # Type of FU issued
system.switch_cpus.iq.FU_type_0::IntMult          651      0.00%     16.55% # Type of FU issued
system.switch_cpus.iq.FU_type_0::IntDiv           140      0.00%     16.55% # Type of FU issued
system.switch_cpus.iq.FU_type_0::FloatAdd         3672      0.02%     16.57% # Type of FU issued
system.switch_cpus.iq.FU_type_0::FloatCmp            0      0.00%     16.57% # Type of FU issued
system.switch_cpus.iq.FU_type_0::FloatCvt            0      0.00%     16.57% # Type of FU issued
system.switch_cpus.iq.FU_type_0::FloatMult            0      0.00%     16.57% # Type of FU issued
system.switch_cpus.iq.FU_type_0::FloatMultAcc            0      0.00%     16.57% # Type of FU issued
system.switch_cpus.iq.FU_type_0::FloatDiv            0      0.00%     16.57% # Type of FU issued
system.switch_cpus.iq.FU_type_0::FloatMisc            0      0.00%     16.57% # Type of FU issued
system.switch_cpus.iq.FU_type_0::FloatSqrt            0      0.00%     16.57% # Type of FU issued
system.switch_cpus.iq.FU_type_0::SimdAdd          802      0.00%     16.57% # Type of FU issued
system.switch_cpus.iq.FU_type_0::SimdAddAcc            0      0.00%     16.57% # Type of FU issued
system.switch_cpus.iq.FU_type_0::SimdAlu        56744      0.24%     16.81% # Type of FU issued
system.switch_cpus.iq.FU_type_0::SimdCmp            0      0.00%     16.81% # Type of FU issued
system.switch_cpus.iq.FU_type_0::SimdCvt         5020      0.02%     16.83% # Type of FU issued
system.switch_cpus.iq.FU_type_0::SimdMisc         5179      0.02%     16.86% # Type of FU issued
system.switch_cpus.iq.FU_type_0::SimdMult            0      0.00%     16.86% # Type of FU issued
system.switch_cpus.iq.FU_type_0::SimdMultAcc            0      0.00%     16.86% # Type of FU issued
system.switch_cpus.iq.FU_type_0::SimdShift           72      0.00%     16.86% # Type of FU issued
system.switch_cpus.iq.FU_type_0::SimdShiftAcc            0      0.00%     16.86% # Type of FU issued
system.switch_cpus.iq.FU_type_0::SimdDiv            0      0.00%     16.86% # Type of FU issued
system.switch_cpus.iq.FU_type_0::SimdSqrt            0      0.00%     16.86% # Type of FU issued
system.switch_cpus.iq.FU_type_0::SimdFloatAdd      5262535     22.60%     39.46% # Type of FU issued
system.switch_cpus.iq.FU_type_0::SimdFloatAlu            0      0.00%     39.46% # Type of FU issued
system.switch_cpus.iq.FU_type_0::SimdFloatCmp            0      0.00%     39.46% # Type of FU issued
system.switch_cpus.iq.FU_type_0::SimdFloatCvt            0      0.00%     39.46% # Type of FU issued
system.switch_cpus.iq.FU_type_0::SimdFloatDiv        10955      0.05%     39.51% # Type of FU issued
system.switch_cpus.iq.FU_type_0::SimdFloatMisc            0      0.00%     39.51% # Type of FU issued
system.switch_cpus.iq.FU_type_0::SimdFloatMult      3855546     16.56%     56.07% # Type of FU issued
system.switch_cpus.iq.FU_type_0::SimdFloatMultAcc            0      0.00%     56.07% # Type of FU issued
system.switch_cpus.iq.FU_type_0::SimdFloatSqrt            0      0.00%     56.07% # Type of FU issued
system.switch_cpus.iq.FU_type_0::SimdReduceAdd            0      0.00%     56.07% # Type of FU issued
system.switch_cpus.iq.FU_type_0::SimdReduceAlu            0      0.00%     56.07% # Type of FU issued
system.switch_cpus.iq.FU_type_0::SimdReduceCmp            0      0.00%     56.07% # Type of FU issued
system.switch_cpus.iq.FU_type_0::SimdFloatReduceAdd            0      0.00%     56.07% # Type of FU issued
system.switch_cpus.iq.FU_type_0::SimdFloatReduceCmp            0      0.00%     56.07% # Type of FU issued
system.switch_cpus.iq.FU_type_0::SimdAes            0      0.00%     56.07% # Type of FU issued
system.switch_cpus.iq.FU_type_0::SimdAesMix            0      0.00%     56.07% # Type of FU issued
system.switch_cpus.iq.FU_type_0::SimdSha1Hash            0      0.00%     56.07% # Type of FU issued
system.switch_cpus.iq.FU_type_0::SimdSha1Hash2            0      0.00%     56.07% # Type of FU issued
system.switch_cpus.iq.FU_type_0::SimdSha256Hash            0      0.00%     56.07% # Type of FU issued
system.switch_cpus.iq.FU_type_0::SimdSha256Hash2            0      0.00%     56.07% # Type of FU issued
system.switch_cpus.iq.FU_type_0::SimdShaSigma2            0      0.00%     56.07% # Type of FU issued
system.switch_cpus.iq.FU_type_0::SimdShaSigma3            0      0.00%     56.07% # Type of FU issued
system.switch_cpus.iq.FU_type_0::SimdPredAlu            0      0.00%     56.07% # Type of FU issued
system.switch_cpus.iq.FU_type_0::MemRead       897689      3.86%     59.93% # Type of FU issued
system.switch_cpus.iq.FU_type_0::MemWrite       131594      0.57%     60.49% # Type of FU issued
system.switch_cpus.iq.FU_type_0::FloatMemRead      6950067     29.85%     90.35% # Type of FU issued
system.switch_cpus.iq.FU_type_0::FloatMemWrite      2247723      9.65%    100.00% # Type of FU issued
system.switch_cpus.iq.FU_type_0::IprAccess            0      0.00%    100.00% # Type of FU issued
system.switch_cpus.iq.FU_type_0::InstPrefetch            0      0.00%    100.00% # Type of FU issued
system.switch_cpus.iq.FU_type_0::total       23280412                       # Type of FU issued
system.switch_cpus.iq.fp_alu_accesses        21770408                       # Number of floating point alu accesses
system.switch_cpus.iq.fp_inst_queue_reads     42632422                       # Number of floating instruction queue reads
system.switch_cpus.iq.fp_inst_queue_wakeup_accesses     20741036                       # Number of floating instruction queue wakeup accesses
system.switch_cpus.iq.fp_inst_queue_writes     21030081                       # Number of floating instruction queue writes
system.switch_cpus.iq.fu_busy_cnt             1023982                       # FU busy when requested
system.switch_cpus.iq.fu_busy_rate           0.043985                       # FU busy rate (busy events/executed inst)
system.switch_cpus.iq.fu_full::No_OpClass            0      0.00%      0.00% # attempts to use FU when none available
system.switch_cpus.iq.fu_full::IntAlu           13188      1.29%      1.29% # attempts to use FU when none available
system.switch_cpus.iq.fu_full::IntMult              0      0.00%      1.29% # attempts to use FU when none available
system.switch_cpus.iq.fu_full::IntDiv               0      0.00%      1.29% # attempts to use FU when none available
system.switch_cpus.iq.fu_full::FloatAdd             0      0.00%      1.29% # attempts to use FU when none available
system.switch_cpus.iq.fu_full::FloatCmp             0      0.00%      1.29% # attempts to use FU when none available
system.switch_cpus.iq.fu_full::FloatCvt             0      0.00%      1.29% # attempts to use FU when none available
system.switch_cpus.iq.fu_full::FloatMult            0      0.00%      1.29% # attempts to use FU when none available
system.switch_cpus.iq.fu_full::FloatMultAcc            0      0.00%      1.29% # attempts to use FU when none available
system.switch_cpus.iq.fu_full::FloatDiv             0      0.00%      1.29% # attempts to use FU when none available
system.switch_cpus.iq.fu_full::FloatMisc            0      0.00%      1.29% # attempts to use FU when none available
system.switch_cpus.iq.fu_full::FloatSqrt            0      0.00%      1.29% # attempts to use FU when none available
system.switch_cpus.iq.fu_full::SimdAdd              0      0.00%      1.29% # attempts to use FU when none available
system.switch_cpus.iq.fu_full::SimdAddAcc            0      0.00%      1.29% # attempts to use FU when none available
system.switch_cpus.iq.fu_full::SimdAlu            688      0.07%      1.36% # attempts to use FU when none available
system.switch_cpus.iq.fu_full::SimdCmp              0      0.00%      1.36% # attempts to use FU when none available
system.switch_cpus.iq.fu_full::SimdCvt              0      0.00%      1.36% # attempts to use FU when none available
system.switch_cpus.iq.fu_full::SimdMisc           363      0.04%      1.39% # attempts to use FU when none available
system.switch_cpus.iq.fu_full::SimdMult             0      0.00%      1.39% # attempts to use FU when none available
system.switch_cpus.iq.fu_full::SimdMultAcc            0      0.00%      1.39% # attempts to use FU when none available
system.switch_cpus.iq.fu_full::SimdShift            0      0.00%      1.39% # attempts to use FU when none available
system.switch_cpus.iq.fu_full::SimdShiftAcc            0      0.00%      1.39% # attempts to use FU when none available
system.switch_cpus.iq.fu_full::SimdDiv              0      0.00%      1.39% # attempts to use FU when none available
system.switch_cpus.iq.fu_full::SimdSqrt             0      0.00%      1.39% # attempts to use FU when none available
system.switch_cpus.iq.fu_full::SimdFloatAdd       118256     11.55%     12.94% # attempts to use FU when none available
system.switch_cpus.iq.fu_full::SimdFloatAlu            0      0.00%     12.94% # attempts to use FU when none available
system.switch_cpus.iq.fu_full::SimdFloatCmp            0      0.00%     12.94% # attempts to use FU when none available
system.switch_cpus.iq.fu_full::SimdFloatCvt            0      0.00%     12.94% # attempts to use FU when none available
system.switch_cpus.iq.fu_full::SimdFloatDiv            0      0.00%     12.94% # attempts to use FU when none available
system.switch_cpus.iq.fu_full::SimdFloatMisc            0      0.00%     12.94% # attempts to use FU when none available
system.switch_cpus.iq.fu_full::SimdFloatMult       250428     24.46%     37.40% # attempts to use FU when none available
system.switch_cpus.iq.fu_full::SimdFloatMultAcc            0      0.00%     37.40% # attempts to use FU when none available
system.switch_cpus.iq.fu_full::SimdFloatSqrt            0      0.00%     37.40% # attempts to use FU when none available
system.switch_cpus.iq.fu_full::SimdReduceAdd            0      0.00%     37.40% # attempts to use FU when none available
system.switch_cpus.iq.fu_full::SimdReduceAlu            0      0.00%     37.40% # attempts to use FU when none available
system.switch_cpus.iq.fu_full::SimdReduceCmp            0      0.00%     37.40% # attempts to use FU when none available
system.switch_cpus.iq.fu_full::SimdFloatReduceAdd            0      0.00%     37.40% # attempts to use FU when none available
system.switch_cpus.iq.fu_full::SimdFloatReduceCmp            0      0.00%     37.40% # attempts to use FU when none available
system.switch_cpus.iq.fu_full::SimdAes              0      0.00%     37.40% # attempts to use FU when none available
system.switch_cpus.iq.fu_full::SimdAesMix            0      0.00%     37.40% # attempts to use FU when none available
system.switch_cpus.iq.fu_full::SimdSha1Hash            0      0.00%     37.40% # attempts to use FU when none available
system.switch_cpus.iq.fu_full::SimdSha1Hash2            0      0.00%     37.40% # attempts to use FU when none available
system.switch_cpus.iq.fu_full::SimdSha256Hash            0      0.00%     37.40% # attempts to use FU when none available
system.switch_cpus.iq.fu_full::SimdSha256Hash2            0      0.00%     37.40% # attempts to use FU when none available
system.switch_cpus.iq.fu_full::SimdShaSigma2            0      0.00%     37.40% # attempts to use FU when none available
system.switch_cpus.iq.fu_full::SimdShaSigma3            0      0.00%     37.40% # attempts to use FU when none available
system.switch_cpus.iq.fu_full::SimdPredAlu            0      0.00%     37.40% # attempts to use FU when none available
system.switch_cpus.iq.fu_full::MemRead          87250      8.52%     45.92% # attempts to use FU when none available
system.switch_cpus.iq.fu_full::MemWrite         14708      1.44%     47.35% # attempts to use FU when none available
system.switch_cpus.iq.fu_full::FloatMemRead       480430     46.92%     94.27% # attempts to use FU when none available
system.switch_cpus.iq.fu_full::FloatMemWrite        58671      5.73%    100.00% # attempts to use FU when none available
system.switch_cpus.iq.fu_full::IprAccess            0      0.00%    100.00% # attempts to use FU when none available
system.switch_cpus.iq.fu_full::InstPrefetch            0      0.00%    100.00% # attempts to use FU when none available
system.switch_cpus.iq.int_alu_accesses        2478587                       # Number of integer alu accesses
system.switch_cpus.iq.int_inst_queue_reads     22136814                       # Number of integer instruction queue reads
system.switch_cpus.iq.int_inst_queue_wakeup_accesses      2302294                       # Number of integer instruction queue wakeup accesses
system.switch_cpus.iq.int_inst_queue_writes      3141829                       # Number of integer instruction queue writes
system.switch_cpus.iq.iqInstsAdded           23268324                       # Number of instructions added to the IQ (excludes non-spec)
system.switch_cpus.iq.iqInstsIssued          23280412                       # Number of instructions issued
system.switch_cpus.iq.iqNonSpecInstsAdded         4839                       # Number of non-speculative instructions added to the IQ
system.switch_cpus.iq.iqSquashedInstsExamined       898462                       # Number of squashed instructions iterated over during squash; mainly for profiling
system.switch_cpus.iq.iqSquashedInstsIssued         3475                       # Number of squashed instructions issued
system.switch_cpus.iq.iqSquashedNonSpecRemoved         4434                       # Number of squashed non-spec instructions that were removed
system.switch_cpus.iq.iqSquashedOperandsExamined       591970                       # Number of squashed operands that are examined and possibly removed from graph
system.switch_cpus.iq.issued_per_cycle::samples     17180956                       # Number of insts issued each cycle
system.switch_cpus.iq.issued_per_cycle::mean     1.355013                       # Number of insts issued each cycle
system.switch_cpus.iq.issued_per_cycle::stdev     2.333125                       # Number of insts issued each cycle
system.switch_cpus.iq.issued_per_cycle::underflows            0      0.00%      0.00% # Number of insts issued each cycle
system.switch_cpus.iq.issued_per_cycle::0     11724295     68.24%     68.24% # Number of insts issued each cycle
system.switch_cpus.iq.issued_per_cycle::1       711706      4.14%     72.38% # Number of insts issued each cycle
system.switch_cpus.iq.issued_per_cycle::2       728669      4.24%     76.62% # Number of insts issued each cycle
system.switch_cpus.iq.issued_per_cycle::3       660675      3.85%     80.47% # Number of insts issued each cycle
system.switch_cpus.iq.issued_per_cycle::4       890566      5.18%     85.65% # Number of insts issued each cycle
system.switch_cpus.iq.issued_per_cycle::5       703144      4.09%     89.75% # Number of insts issued each cycle
system.switch_cpus.iq.issued_per_cycle::6       782612      4.56%     94.30% # Number of insts issued each cycle
system.switch_cpus.iq.issued_per_cycle::7       478625      2.79%     97.09% # Number of insts issued each cycle
system.switch_cpus.iq.issued_per_cycle::8       500664      2.91%    100.00% # Number of insts issued each cycle
system.switch_cpus.iq.issued_per_cycle::overflows            0      0.00%    100.00% # Number of insts issued each cycle
system.switch_cpus.iq.issued_per_cycle::min_value            0                       # Number of insts issued each cycle
system.switch_cpus.iq.issued_per_cycle::max_value            8                       # Number of insts issued each cycle
system.switch_cpus.iq.issued_per_cycle::total     17180956                       # Number of insts issued each cycle
system.switch_cpus.iq.rate                   1.345677                       # Inst issue rate
system.switch_cpus.iq.vec_alu_accesses              0                       # Number of vector alu accesses
system.switch_cpus.iq.vec_inst_queue_reads            0                       # Number of vector instruction queue reads
system.switch_cpus.iq.vec_inst_queue_wakeup_accesses            0                       # Number of vector instruction queue wakeup accesses
system.switch_cpus.iq.vec_inst_queue_writes            0                       # Number of vector instruction queue writes
system.switch_cpus.itb.rdAccesses                   0                       # TLB accesses on read requests
system.switch_cpus.itb.rdMisses                     0                       # TLB misses on read requests
system.switch_cpus.itb.wrAccesses             1121753                       # TLB accesses on write requests
system.switch_cpus.itb.wrMisses                   264                       # TLB misses on write requests
system.switch_cpus.memDep0.conflictingLoads        21784                       # Number of conflicting loads.
system.switch_cpus.memDep0.conflictingStores       112104                       # Number of conflicting stores.
system.switch_cpus.memDep0.insertedLoads      7707651                       # Number of loads inserted to the mem dependence unit.
system.switch_cpus.memDep0.insertedStores      2446167                       # Number of stores inserted to the mem dependence unit.
system.switch_cpus.misc_regfile_reads        10728332                       # number of misc regfile reads
system.switch_cpus.misc_regfile_writes              1                       # number of misc regfile writes
system.switch_cpus.numCycles                 17300146                       # number of cpu cycles simulated
system.switch_cpus.numWorkItemsCompleted            0                       # number of work items this cpu completed
system.switch_cpus.numWorkItemsStarted              0                       # number of work items this cpu started
system.switch_cpus.rename.BlockCycles         4827362                       # Number of cycles rename is blocking
system.switch_cpus.rename.CommittedMaps      20443121                       # Number of HB maps that are committed
system.switch_cpus.rename.IQFullEvents         243001                       # Number of times rename has blocked due to IQ full
system.switch_cpus.rename.IdleCycles          1116218                       # Number of cycles rename is idle
system.switch_cpus.rename.LQFullEvents        2903679                       # Number of times rename has blocked due to LQ full
system.switch_cpus.rename.ROBFullEvents         10764                       # Number of times rename has blocked due to ROB full
system.switch_cpus.rename.RenameLookups      68416571                       # Number of register rename lookups that rename has made
system.switch_cpus.rename.RenamedInsts       23348572                       # Number of instructions processed by rename
system.switch_cpus.rename.RenamedOperands     21347767                       # Number of destination operands rename has renamed
system.switch_cpus.rename.RunCycles           2865394                       # Number of cycles rename is running
system.switch_cpus.rename.SQFullEvents        5232962                       # Number of times rename has blocked due to SQ full
system.switch_cpus.rename.SquashCycles          13107                       # Number of cycles rename is squashing
system.switch_cpus.rename.UnblockCycles       8358423                       # Number of cycles rename is unblocking
system.switch_cpus.rename.UndoneMaps           904599                       # Number of HB maps that are undone due to squashing
system.switch_cpus.rename.fp_rename_lookups     34764413                       # Number of floating rename lookups
system.switch_cpus.rename.int_rename_lookups     22109880                       # Number of integer rename lookups
system.switch_cpus.rename.serializeStallCycles          115                       # count of cycles rename stalled for serializing inst
system.switch_cpus.rename.serializingInsts           13                       # count of serializing insts renamed
system.switch_cpus.rename.skidInsts           3774921                       # count of insts added to the skid buffer
system.switch_cpus.rename.tempSerializingInsts           13                       # count of temporary serializing insts renamed
system.switch_cpus.rob.rob_reads             38606889                       # The number of ROB reads
system.switch_cpus.rob.rob_writes            46417315                       # The number of ROB writes
system.switch_cpus.timesIdled                    1351                       # Number of times that the entire CPU went into an idle state and unscheduled itself
system.tol2bus.snoop_filter.hit_multi_requests            5                       # Number of requests hitting in the snoop filter with multiple (>1) holders of the requested data.
system.tol2bus.snoop_filter.hit_multi_snoops            0                       # Number of snoops hitting in the snoop filter with multiple (>1) holders of the requested data.
system.tol2bus.snoop_filter.hit_single_requests       119277                       # Number of requests hitting in the snoop filter with a single holder of the requested data.
system.tol2bus.snoop_filter.hit_single_snoops         1718                       # Number of snoops hitting in the snoop filter with a single holder of the requested data.
system.tol2bus.snoop_filter.tot_requests       240093                       # Total number of requests made to the snoop filter.
system.tol2bus.snoop_filter.tot_snoops           1718                       # Total number of snoops made to the snoop filter.
system.membus.pwrStateResidencyTicks::UNDEFINED 371669744966500                       # Cumulative time (in ticks) in various power states
system.membus.trans_dist::ReadResp              74401                       # Transaction distribution
system.membus.trans_dist::WritebackDirty        33539                       # Transaction distribution
system.membus.trans_dist::CleanEvict            68460                       # Transaction distribution
system.membus.trans_dist::ReadExReq             32206                       # Transaction distribution
system.membus.trans_dist::ReadExResp            32206                       # Transaction distribution
system.membus.trans_dist::ReadSharedReq         74401                       # Transaction distribution
system.membus.pkt_count_system.l2.mem_side::system.mem_ctrls.port       315213                       # Packet count per connected master and slave (bytes)
system.membus.pkt_count_system.l2.mem_side::total       315213                       # Packet count per connected master and slave (bytes)
system.membus.pkt_count::total                 315213                       # Packet count per connected master and slave (bytes)
system.membus.pkt_size_system.l2.mem_side::system.mem_ctrls.port      8969344                       # Cumulative packet size per connected master and slave (bytes)
system.membus.pkt_size_system.l2.mem_side::total      8969344                       # Cumulative packet size per connected master and slave (bytes)
system.membus.pkt_size::total                 8969344                       # Cumulative packet size per connected master and slave (bytes)
system.membus.snoops                                0                       # Total snoops (count)
system.membus.snoopTraffic                          0                       # Total snoop traffic (bytes)
system.membus.snoop_fanout::samples            106607                       # Request fanout histogram
system.membus.snoop_fanout::mean                    0                       # Request fanout histogram
system.membus.snoop_fanout::stdev                   0                       # Request fanout histogram
system.membus.snoop_fanout::underflows              0      0.00%      0.00% # Request fanout histogram
system.membus.snoop_fanout::0                  106607    100.00%    100.00% # Request fanout histogram
system.membus.snoop_fanout::1                       0      0.00%    100.00% # Request fanout histogram
system.membus.snoop_fanout::overflows               0      0.00%    100.00% # Request fanout histogram
system.membus.snoop_fanout::min_value               0                       # Request fanout histogram
system.membus.snoop_fanout::max_value               0                       # Request fanout histogram
system.membus.snoop_fanout::total              106607                       # Request fanout histogram
system.membus.reqLayer2.occupancy           361324000                       # Layer occupancy (ticks)
system.membus.reqLayer2.utilization               4.2                       # Layer utilization (%)
system.membus.respLayer1.occupancy          589875750                       # Layer occupancy (ticks)
system.membus.respLayer1.utilization              6.8                       # Layer utilization (%)
system.switch_cpus.pwrStateResidencyTicks::OFF   8650084000                       # Cumulative time (in ticks) in various power states
system.switch_cpus.dtb.walker.pwrStateResidencyTicks::UNDEFINED 371669744966500                       # Cumulative time (in ticks) in various power states
system.switch_cpus.itb.walker.pwrStateResidencyTicks::UNDEFINED 371669744966500                       # Cumulative time (in ticks) in various power states
system.tol2bus.pwrStateResidencyTicks::UNDEFINED 371669744966500                       # Cumulative time (in ticks) in various power states
system.tol2bus.trans_dist::ReadResp             85158                       # Transaction distribution
system.tol2bus.trans_dist::WritebackDirty        72901                       # Transaction distribution
system.tol2bus.trans_dist::WritebackClean         1790                       # Transaction distribution
system.tol2bus.trans_dist::CleanEvict          148202                       # Transaction distribution
system.tol2bus.trans_dist::UpgradeReq               1                       # Transaction distribution
system.tol2bus.trans_dist::UpgradeResp              1                       # Transaction distribution
system.tol2bus.trans_dist::ReadExReq            35655                       # Transaction distribution
system.tol2bus.trans_dist::ReadExResp           35655                       # Transaction distribution
system.tol2bus.trans_dist::ReadCleanReq          2302                       # Transaction distribution
system.tol2bus.trans_dist::ReadSharedReq        82858                       # Transaction distribution
system.tol2bus.pkt_count_system.cpu.icache.mem_side::system.l2.cpu_side         6392                       # Packet count per connected master and slave (bytes)
system.tol2bus.pkt_count_system.cpu.dcache.mem_side::system.l2.cpu_side       354513                       # Packet count per connected master and slave (bytes)
system.tol2bus.pkt_count::total                360905                       # Packet count per connected master and slave (bytes)
system.tol2bus.pkt_size_system.cpu.icache.mem_side::system.l2.cpu_side       261760                       # Cumulative packet size per connected master and slave (bytes)
system.tol2bus.pkt_size_system.cpu.dcache.mem_side::system.l2.cpu_side     10103872                       # Cumulative packet size per connected master and slave (bytes)
system.tol2bus.pkt_size::total               10365632                       # Cumulative packet size per connected master and slave (bytes)
system.tol2bus.snoops                          103618                       # Total snoops (count)
system.tol2bus.snoopTraffic                   2146624                       # Total snoop traffic (bytes)
system.tol2bus.snoop_fanout::samples           224432                       # Request fanout histogram
system.tol2bus.snoop_fanout::mean            0.007677                       # Request fanout histogram
system.tol2bus.snoop_fanout::stdev           0.087283                       # Request fanout histogram
system.tol2bus.snoop_fanout::underflows             0      0.00%      0.00% # Request fanout histogram
system.tol2bus.snoop_fanout::0                 222709     99.23%     99.23% # Request fanout histogram
system.tol2bus.snoop_fanout::1                   1723      0.77%    100.00% # Request fanout histogram
system.tol2bus.snoop_fanout::2                      0      0.00%    100.00% # Request fanout histogram
system.tol2bus.snoop_fanout::3                      0      0.00%    100.00% # Request fanout histogram
system.tol2bus.snoop_fanout::4                      0      0.00%    100.00% # Request fanout histogram
system.tol2bus.snoop_fanout::overflows              0      0.00%    100.00% # Request fanout histogram
system.tol2bus.snoop_fanout::min_value              0                       # Request fanout histogram
system.tol2bus.snoop_fanout::max_value              1                       # Request fanout histogram
system.tol2bus.snoop_fanout::total             224432                       # Request fanout histogram
system.tol2bus.reqLayer0.occupancy          161195500                       # Layer occupancy (ticks)
system.tol2bus.reqLayer0.utilization              1.9                       # Layer utilization (%)
system.tol2bus.respLayer1.occupancy         177761499                       # Layer occupancy (ticks)
system.tol2bus.respLayer1.utilization             2.1                       # Layer utilization (%)
system.tol2bus.respLayer0.occupancy           3450499                       # Layer occupancy (ticks)
system.tol2bus.respLayer0.utilization             0.0                       # Layer utilization (%)
system.voltage_domain.voltage                       1                       # Voltage in Volts
system.clk_domain.clock                          1000                       # Clock period in ticks
system.l2.pwrStateResidencyTicks::UNDEFINED 371669744966500                       # Cumulative time (in ticks) in various power states
system.l2.demand_hits::.switch_cpus.inst          897                       # number of demand (read+write) hits
system.l2.demand_hits::.switch_cpus.data        13308                       # number of demand (read+write) hits
system.l2.demand_hits::total                    14205                       # number of demand (read+write) hits
system.l2.overall_hits::.switch_cpus.inst          897                       # number of overall hits
system.l2.overall_hits::.switch_cpus.data        13308                       # number of overall hits
system.l2.overall_hits::total                   14205                       # number of overall hits
system.l2.demand_misses::.cpu.inst                  2                       # number of demand (read+write) misses
system.l2.demand_misses::.cpu.data                  4                       # number of demand (read+write) misses
system.l2.demand_misses::.switch_cpus.inst         1401                       # number of demand (read+write) misses
system.l2.demand_misses::.switch_cpus.data       105201                       # number of demand (read+write) misses
system.l2.demand_misses::total                 106608                       # number of demand (read+write) misses
system.l2.overall_misses::.cpu.inst                 2                       # number of overall misses
system.l2.overall_misses::.cpu.data                 4                       # number of overall misses
system.l2.overall_misses::.switch_cpus.inst         1401                       # number of overall misses
system.l2.overall_misses::.switch_cpus.data       105201                       # number of overall misses
system.l2.overall_misses::total                106608                       # number of overall misses
system.l2.demand_miss_latency::.switch_cpus.inst    114169500                       # number of demand (read+write) miss cycles
system.l2.demand_miss_latency::.switch_cpus.data  10722477500                       # number of demand (read+write) miss cycles
system.l2.demand_miss_latency::total      10836647000                       # number of demand (read+write) miss cycles
system.l2.overall_miss_latency::.switch_cpus.inst    114169500                       # number of overall miss cycles
system.l2.overall_miss_latency::.switch_cpus.data  10722477500                       # number of overall miss cycles
system.l2.overall_miss_latency::total     10836647000                       # number of overall miss cycles
system.l2.demand_accesses::.cpu.inst                2                       # number of demand (read+write) accesses
system.l2.demand_accesses::.cpu.data                4                       # number of demand (read+write) accesses
system.l2.demand_accesses::.switch_cpus.inst         2298                       # number of demand (read+write) accesses
system.l2.demand_accesses::.switch_cpus.data       118509                       # number of demand (read+write) accesses
system.l2.demand_accesses::total               120813                       # number of demand (read+write) accesses
system.l2.overall_accesses::.cpu.inst               2                       # number of overall (read+write) accesses
system.l2.overall_accesses::.cpu.data               4                       # number of overall (read+write) accesses
system.l2.overall_accesses::.switch_cpus.inst         2298                       # number of overall (read+write) accesses
system.l2.overall_accesses::.switch_cpus.data       118509                       # number of overall (read+write) accesses
system.l2.overall_accesses::total              120813                       # number of overall (read+write) accesses
system.l2.demand_miss_rate::.cpu.inst               1                       # miss rate for demand accesses
system.l2.demand_miss_rate::.cpu.data               1                       # miss rate for demand accesses
system.l2.demand_miss_rate::.switch_cpus.inst     0.609661                       # miss rate for demand accesses
system.l2.demand_miss_rate::.switch_cpus.data     0.887705                       # miss rate for demand accesses
system.l2.demand_miss_rate::total            0.882422                       # miss rate for demand accesses
system.l2.overall_miss_rate::.cpu.inst              1                       # miss rate for overall accesses
system.l2.overall_miss_rate::.cpu.data              1                       # miss rate for overall accesses
system.l2.overall_miss_rate::.switch_cpus.inst     0.609661                       # miss rate for overall accesses
system.l2.overall_miss_rate::.switch_cpus.data     0.887705                       # miss rate for overall accesses
system.l2.overall_miss_rate::total           0.882422                       # miss rate for overall accesses
system.l2.demand_avg_miss_latency::.switch_cpus.inst 81491.434690                       # average overall miss latency
system.l2.demand_avg_miss_latency::.switch_cpus.data 101923.722208                       # average overall miss latency
system.l2.demand_avg_miss_latency::total 101649.472835                       # average overall miss latency
system.l2.overall_avg_miss_latency::.switch_cpus.inst 81491.434690                       # average overall miss latency
system.l2.overall_avg_miss_latency::.switch_cpus.data 101923.722208                       # average overall miss latency
system.l2.overall_avg_miss_latency::total 101649.472835                       # average overall miss latency
system.l2.blocked_cycles::no_mshrs                  0                       # number of cycles access was blocked
system.l2.blocked_cycles::no_targets                0                       # number of cycles access was blocked
system.l2.blocked::no_mshrs                         0                       # number of cycles access was blocked
system.l2.blocked::no_targets                       0                       # number of cycles access was blocked
system.l2.avg_blocked_cycles::no_mshrs            nan                       # average number of cycles each access was blocked
system.l2.avg_blocked_cycles::no_targets          nan                       # average number of cycles each access was blocked
system.l2.writebacks::.writebacks               33539                       # number of writebacks
system.l2.writebacks::total                     33539                       # number of writebacks
system.l2.demand_mshr_misses::.switch_cpus.inst         1401                       # number of demand (read+write) MSHR misses
system.l2.demand_mshr_misses::.switch_cpus.data       105201                       # number of demand (read+write) MSHR misses
system.l2.demand_mshr_misses::total            106602                       # number of demand (read+write) MSHR misses
system.l2.overall_mshr_misses::.switch_cpus.inst         1401                       # number of overall MSHR misses
system.l2.overall_mshr_misses::.switch_cpus.data       105201                       # number of overall MSHR misses
system.l2.overall_mshr_misses::total           106602                       # number of overall MSHR misses
system.l2.demand_mshr_miss_latency::.switch_cpus.inst    100159500                       # number of demand (read+write) MSHR miss cycles
system.l2.demand_mshr_miss_latency::.switch_cpus.data   9670477500                       # number of demand (read+write) MSHR miss cycles
system.l2.demand_mshr_miss_latency::total   9770637000                       # number of demand (read+write) MSHR miss cycles
system.l2.overall_mshr_miss_latency::.switch_cpus.inst    100159500                       # number of overall MSHR miss cycles
system.l2.overall_mshr_miss_latency::.switch_cpus.data   9670477500                       # number of overall MSHR miss cycles
system.l2.overall_mshr_miss_latency::total   9770637000                       # number of overall MSHR miss cycles
system.l2.demand_mshr_miss_rate::.switch_cpus.inst     0.609661                       # mshr miss rate for demand accesses
system.l2.demand_mshr_miss_rate::.switch_cpus.data     0.887705                       # mshr miss rate for demand accesses
system.l2.demand_mshr_miss_rate::total       0.882372                       # mshr miss rate for demand accesses
system.l2.overall_mshr_miss_rate::.switch_cpus.inst     0.609661                       # mshr miss rate for overall accesses
system.l2.overall_mshr_miss_rate::.switch_cpus.data     0.887705                       # mshr miss rate for overall accesses
system.l2.overall_mshr_miss_rate::total      0.882372                       # mshr miss rate for overall accesses
system.l2.demand_avg_mshr_miss_latency::.switch_cpus.inst 71491.434690                       # average overall mshr miss latency
system.l2.demand_avg_mshr_miss_latency::.switch_cpus.data 91923.817264                       # average overall mshr miss latency
system.l2.demand_avg_mshr_miss_latency::total 91655.287893                       # average overall mshr miss latency
system.l2.overall_avg_mshr_miss_latency::.switch_cpus.inst 71491.434690                       # average overall mshr miss latency
system.l2.overall_avg_mshr_miss_latency::.switch_cpus.data 91923.817264                       # average overall mshr miss latency
system.l2.overall_avg_mshr_miss_latency::total 91655.287893                       # average overall mshr miss latency
system.l2.replacements                         103616                       # number of replacements
system.l2.WritebackDirty_hits::.writebacks        39362                       # number of WritebackDirty hits
system.l2.WritebackDirty_hits::total            39362                       # number of WritebackDirty hits
system.l2.WritebackDirty_accesses::.writebacks        39362                       # number of WritebackDirty accesses(hits+misses)
system.l2.WritebackDirty_accesses::total        39362                       # number of WritebackDirty accesses(hits+misses)
system.l2.WritebackClean_hits::.writebacks         1787                       # number of WritebackClean hits
system.l2.WritebackClean_hits::total             1787                       # number of WritebackClean hits
system.l2.WritebackClean_accesses::.writebacks         1787                       # number of WritebackClean accesses(hits+misses)
system.l2.WritebackClean_accesses::total         1787                       # number of WritebackClean accesses(hits+misses)
system.l2.CleanEvict_mshr_misses::.writebacks          101                       # number of CleanEvict MSHR misses
system.l2.CleanEvict_mshr_misses::total           101                       # number of CleanEvict MSHR misses
system.l2.CleanEvict_mshr_miss_rate::.writebacks          inf                       # mshr miss rate for CleanEvict accesses
system.l2.CleanEvict_mshr_miss_rate::total          inf                       # mshr miss rate for CleanEvict accesses
system.l2.UpgradeReq_hits::.switch_cpus.data            1                       # number of UpgradeReq hits
system.l2.UpgradeReq_hits::total                    1                       # number of UpgradeReq hits
system.l2.UpgradeReq_accesses::.switch_cpus.data            1                       # number of UpgradeReq accesses(hits+misses)
system.l2.UpgradeReq_accesses::total                1                       # number of UpgradeReq accesses(hits+misses)
system.l2.ReadExReq_hits::.switch_cpus.data         3449                       # number of ReadExReq hits
system.l2.ReadExReq_hits::total                  3449                       # number of ReadExReq hits
system.l2.ReadExReq_misses::.switch_cpus.data        32206                       # number of ReadExReq misses
system.l2.ReadExReq_misses::total               32206                       # number of ReadExReq misses
system.l2.ReadExReq_miss_latency::.switch_cpus.data   3178795000                       # number of ReadExReq miss cycles
system.l2.ReadExReq_miss_latency::total    3178795000                       # number of ReadExReq miss cycles
system.l2.ReadExReq_accesses::.switch_cpus.data        35655                       # number of ReadExReq accesses(hits+misses)
system.l2.ReadExReq_accesses::total             35655                       # number of ReadExReq accesses(hits+misses)
system.l2.ReadExReq_miss_rate::.switch_cpus.data     0.903267                       # miss rate for ReadExReq accesses
system.l2.ReadExReq_miss_rate::total         0.903267                       # miss rate for ReadExReq accesses
system.l2.ReadExReq_avg_miss_latency::.switch_cpus.data 98701.949947                       # average ReadExReq miss latency
system.l2.ReadExReq_avg_miss_latency::total 98701.949947                       # average ReadExReq miss latency
system.l2.ReadExReq_mshr_misses::.switch_cpus.data        32206                       # number of ReadExReq MSHR misses
system.l2.ReadExReq_mshr_misses::total          32206                       # number of ReadExReq MSHR misses
system.l2.ReadExReq_mshr_miss_latency::.switch_cpus.data   2856735000                       # number of ReadExReq MSHR miss cycles
system.l2.ReadExReq_mshr_miss_latency::total   2856735000                       # number of ReadExReq MSHR miss cycles
system.l2.ReadExReq_mshr_miss_rate::.switch_cpus.data     0.903267                       # mshr miss rate for ReadExReq accesses
system.l2.ReadExReq_mshr_miss_rate::total     0.903267                       # mshr miss rate for ReadExReq accesses
system.l2.ReadExReq_avg_mshr_miss_latency::.switch_cpus.data 88701.949947                       # average ReadExReq mshr miss latency
system.l2.ReadExReq_avg_mshr_miss_latency::total 88701.949947                       # average ReadExReq mshr miss latency
system.l2.ReadCleanReq_hits::.switch_cpus.inst          897                       # number of ReadCleanReq hits
system.l2.ReadCleanReq_hits::total                897                       # number of ReadCleanReq hits
system.l2.ReadCleanReq_misses::.cpu.inst            2                       # number of ReadCleanReq misses
system.l2.ReadCleanReq_misses::.switch_cpus.inst         1401                       # number of ReadCleanReq misses
system.l2.ReadCleanReq_misses::total             1403                       # number of ReadCleanReq misses
system.l2.ReadCleanReq_miss_latency::.switch_cpus.inst    114169500                       # number of ReadCleanReq miss cycles
system.l2.ReadCleanReq_miss_latency::total    114169500                       # number of ReadCleanReq miss cycles
system.l2.ReadCleanReq_accesses::.cpu.inst            2                       # number of ReadCleanReq accesses(hits+misses)
system.l2.ReadCleanReq_accesses::.switch_cpus.inst         2298                       # number of ReadCleanReq accesses(hits+misses)
[...]
system.cpu.itb_walker_cache.tags.tag_accesses            0                       # Number of tag accesses
system.cpu.itb_walker_cache.tags.data_accesses            0                       # Number of data accesses
system.cpu.itb.walker.pwrStateResidencyTicks::UNDEFINED 371693630103500                       # Cumulative time (in ticks) in various power states
system.cpu.dtb_walker_cache.pwrStateResidencyTicks::UNDEFINED 371693630103500                       # Cumulative time (in ticks) in various power states
system.cpu.dtb_walker_cache.blocked_cycles::no_mshrs            0                       # number of cycles access was blocked
system.cpu.dtb_walker_cache.blocked_cycles::no_targets            0                       # number of cycles access was blocked
system.cpu.dtb_walker_cache.blocked::no_mshrs            0                       # number of cycles access was blocked
system.cpu.dtb_walker_cache.blocked::no_targets            0                       # number of cycles access was blocked
system.cpu.dtb_walker_cache.avg_blocked_cycles::no_mshrs          nan                       # average number of cycles each access was blocked
system.cpu.dtb_walker_cache.avg_blocked_cycles::no_targets          nan                       # average number of cycles each access was blocked
system.cpu.dtb_walker_cache.replacements            0                       # number of replacements
system.cpu.dtb_walker_cache.tags.pwrStateResidencyTicks::UNDEFINED 371693630103500                       # Cumulative time (in ticks) in various power states
system.cpu.dtb_walker_cache.tags.tagsinuse            0                       # Cycle average of tags in use
system.cpu.dtb_walker_cache.tags.total_refs            0                       # Total number of references to valid blocks.
system.cpu.dtb_walker_cache.tags.sampled_refs            0                       # Sample count of references to valid blocks.
system.cpu.dtb_walker_cache.tags.avg_refs          nan                       # Average number of references to valid blocks.
system.cpu.dtb_walker_cache.tags.warmup_cycle            0                       # Cycle when the warmup percentage was hit.
system.cpu.dtb_walker_cache.tags.tag_accesses            0                       # Number of tag accesses
system.cpu.dtb_walker_cache.tags.data_accesses            0                       # Number of data accesses
system.cpu.dcache.pwrStateResidencyTicks::UNDEFINED 371693630103500                       # Cumulative time (in ticks) in various power states
system.cpu.dcache.demand_hits::.cpu.data            4                       # number of demand (read+write) hits
system.cpu.dcache.demand_hits::.switch_cpus.data     37066672                       # number of demand (read+write) hits
system.cpu.dcache.demand_hits::total         37066676                       # number of demand (read+write) hits
system.cpu.dcache.overall_hits::.cpu.data            4                       # number of overall hits
system.cpu.dcache.overall_hits::.switch_cpus.data     37127549                       # number of overall hits
system.cpu.dcache.overall_hits::total        37127553                       # number of overall hits
system.cpu.dcache.demand_misses::.cpu.data            4                       # number of demand (read+write) misses
system.cpu.dcache.demand_misses::.switch_cpus.data       657958                       # number of demand (read+write) misses
system.cpu.dcache.demand_misses::total         657962                       # number of demand (read+write) misses
system.cpu.dcache.overall_misses::.cpu.data            4                       # number of overall misses
system.cpu.dcache.overall_misses::.switch_cpus.data       670603                       # number of overall misses
system.cpu.dcache.overall_misses::total        670607                       # number of overall misses
system.cpu.dcache.demand_miss_latency::.switch_cpus.data  58095971490                       # number of demand (read+write) miss cycles
system.cpu.dcache.demand_miss_latency::total  58095971490                       # number of demand (read+write) miss cycles
system.cpu.dcache.overall_miss_latency::.switch_cpus.data  58095971490                       # number of overall miss cycles
system.cpu.dcache.overall_miss_latency::total  58095971490                       # number of overall miss cycles
system.cpu.dcache.demand_accesses::.cpu.data            8                       # number of demand (read+write) accesses
system.cpu.dcache.demand_accesses::.switch_cpus.data     37724630                       # number of demand (read+write) accesses
system.cpu.dcache.demand_accesses::total     37724638                       # number of demand (read+write) accesses
system.cpu.dcache.overall_accesses::.cpu.data            8                       # number of overall (read+write) accesses
system.cpu.dcache.overall_accesses::.switch_cpus.data     37798152                       # number of overall (read+write) accesses
system.cpu.dcache.overall_accesses::total     37798160                       # number of overall (read+write) accesses
system.cpu.dcache.demand_miss_rate::.cpu.data     0.500000                       # miss rate for demand accesses
system.cpu.dcache.demand_miss_rate::.switch_cpus.data     0.017441                       # miss rate for demand accesses
system.cpu.dcache.demand_miss_rate::total     0.017441                       # miss rate for demand accesses
system.cpu.dcache.overall_miss_rate::.cpu.data     0.500000                       # miss rate for overall accesses
system.cpu.dcache.overall_miss_rate::.switch_cpus.data     0.017742                       # miss rate for overall accesses
system.cpu.dcache.overall_miss_rate::total     0.017742                       # miss rate for overall accesses
system.cpu.dcache.demand_avg_miss_latency::.switch_cpus.data 88297.385988                       # average overall miss latency
system.cpu.dcache.demand_avg_miss_latency::total 88296.849195                       # average overall miss latency
system.cpu.dcache.overall_avg_miss_latency::.switch_cpus.data 86632.436017                       # average overall miss latency
system.cpu.dcache.overall_avg_miss_latency::total 86631.919276                       # average overall miss latency
system.cpu.dcache.blocked_cycles::no_mshrs      7555251                       # number of cycles access was blocked
system.cpu.dcache.blocked_cycles::no_targets            0                       # number of cycles access was blocked
system.cpu.dcache.blocked::no_mshrs            112718                       # number of cycles access was blocked
system.cpu.dcache.blocked::no_targets               0                       # number of cycles access was blocked
system.cpu.dcache.avg_blocked_cycles::no_mshrs    67.027901                       # average number of cycles each access was blocked
system.cpu.dcache.avg_blocked_cycles::no_targets          nan                       # average number of cycles each access was blocked
system.cpu.dcache.writebacks::.writebacks       146362                       # number of writebacks
system.cpu.dcache.writebacks::total            146362                       # number of writebacks
system.cpu.dcache.demand_mshr_hits::.switch_cpus.data       211906                       # number of demand (read+write) MSHR hits
system.cpu.dcache.demand_mshr_hits::total       211906                       # number of demand (read+write) MSHR hits
system.cpu.dcache.overall_mshr_hits::.switch_cpus.data       211906                       # number of overall MSHR hits
system.cpu.dcache.overall_mshr_hits::total       211906                       # number of overall MSHR hits
system.cpu.dcache.demand_mshr_misses::.switch_cpus.data       446052                       # number of demand (read+write) MSHR misses
system.cpu.dcache.demand_mshr_misses::total       446052                       # number of demand (read+write) MSHR misses
system.cpu.dcache.overall_mshr_misses::.switch_cpus.data       451495                       # number of overall MSHR misses
system.cpu.dcache.overall_mshr_misses::total       451495                       # number of overall MSHR misses
system.cpu.dcache.demand_mshr_miss_latency::.switch_cpus.data  40601222490                       # number of demand (read+write) MSHR miss cycles
system.cpu.dcache.demand_mshr_miss_latency::total  40601222490                       # number of demand (read+write) MSHR miss cycles
system.cpu.dcache.overall_mshr_miss_latency::.switch_cpus.data  41084972990                       # number of overall MSHR miss cycles
system.cpu.dcache.overall_mshr_miss_latency::total  41084972990                       # number of overall MSHR miss cycles
system.cpu.dcache.demand_mshr_miss_rate::.switch_cpus.data     0.011824                       # mshr miss rate for demand accesses
system.cpu.dcache.demand_mshr_miss_rate::total     0.011824                       # mshr miss rate for demand accesses
system.cpu.dcache.overall_mshr_miss_rate::.switch_cpus.data     0.011945                       # mshr miss rate for overall accesses
system.cpu.dcache.overall_mshr_miss_rate::total     0.011945                       # mshr miss rate for overall accesses
system.cpu.dcache.demand_avg_mshr_miss_latency::.switch_cpus.data 91023.518536                       # average overall mshr miss latency
system.cpu.dcache.demand_avg_mshr_miss_latency::total 91023.518536                       # average overall mshr miss latency
system.cpu.dcache.overall_avg_mshr_miss_latency::.switch_cpus.data 90997.625644                       # average overall mshr miss latency
system.cpu.dcache.overall_avg_mshr_miss_latency::total 90997.625644                       # average overall mshr miss latency
system.cpu.dcache.replacements                 450474                       # number of replacements
system.cpu.dcache.ReadReq_hits::.cpu.data            4                       # number of ReadReq hits
system.cpu.dcache.ReadReq_hits::.switch_cpus.data     28212018                       # number of ReadReq hits
system.cpu.dcache.ReadReq_hits::total        28212022                       # number of ReadReq hits
system.cpu.dcache.ReadReq_misses::.cpu.data            4                       # number of ReadReq misses
system.cpu.dcache.ReadReq_misses::.switch_cpus.data       529895                       # number of ReadReq misses
system.cpu.dcache.ReadReq_misses::total        529899                       # number of ReadReq misses
system.cpu.dcache.ReadReq_miss_latency::.switch_cpus.data  46448766500                       # number of ReadReq miss cycles
system.cpu.dcache.ReadReq_miss_latency::total  46448766500                       # number of ReadReq miss cycles
system.cpu.dcache.ReadReq_accesses::.cpu.data            8                       # number of ReadReq accesses(hits+misses)
system.cpu.dcache.ReadReq_accesses::.switch_cpus.data     28741913                       # number of ReadReq accesses(hits+misses)
system.cpu.dcache.ReadReq_accesses::total     28741921                       # number of ReadReq accesses(hits+misses)
system.cpu.dcache.ReadReq_miss_rate::.cpu.data     0.500000                       # miss rate for ReadReq accesses
system.cpu.dcache.ReadReq_miss_rate::.switch_cpus.data     0.018436                       # miss rate for ReadReq accesses
system.cpu.dcache.ReadReq_miss_rate::total     0.018436                       # miss rate for ReadReq accesses
system.cpu.dcache.ReadReq_avg_miss_latency::.switch_cpus.data 87656.547995                       # average ReadReq miss latency
system.cpu.dcache.ReadReq_avg_miss_latency::total 87655.886310                       # average ReadReq miss latency
system.cpu.dcache.ReadReq_mshr_hits::.switch_cpus.data       211807                       # number of ReadReq MSHR hits
system.cpu.dcache.ReadReq_mshr_hits::total       211807                       # number of ReadReq MSHR hits
system.cpu.dcache.ReadReq_mshr_misses::.switch_cpus.data       318088                       # number of ReadReq MSHR misses
system.cpu.dcache.ReadReq_mshr_misses::total       318088                       # number of ReadReq MSHR misses
system.cpu.dcache.ReadReq_mshr_miss_latency::.switch_cpus.data  29084432500                       # number of ReadReq MSHR miss cycles
system.cpu.dcache.ReadReq_mshr_miss_latency::total  29084432500                       # number of ReadReq MSHR miss cycles
system.cpu.dcache.ReadReq_mshr_miss_rate::.switch_cpus.data     0.011067                       # mshr miss rate for ReadReq accesses
system.cpu.dcache.ReadReq_mshr_miss_rate::total     0.011067                       # mshr miss rate for ReadReq accesses
system.cpu.dcache.ReadReq_avg_mshr_miss_latency::.switch_cpus.data 91435.176744                       # average ReadReq mshr miss latency
system.cpu.dcache.ReadReq_avg_mshr_miss_latency::total 91435.176744                       # average ReadReq mshr miss latency
system.cpu.dcache.WriteReq_hits::.switch_cpus.data      8854654                       # number of WriteReq hits
system.cpu.dcache.WriteReq_hits::total        8854654                       # number of WriteReq hits
system.cpu.dcache.WriteReq_misses::.switch_cpus.data       128063                       # number of WriteReq misses
system.cpu.dcache.WriteReq_misses::total       128063                       # number of WriteReq misses
system.cpu.dcache.WriteReq_miss_latency::.switch_cpus.data  11647204990                       # number of WriteReq miss cycles
system.cpu.dcache.WriteReq_miss_latency::total  11647204990                       # number of WriteReq miss cycles
system.cpu.dcache.WriteReq_accesses::.switch_cpus.data      8982717                       # number of WriteReq accesses(hits+misses)
system.cpu.dcache.WriteReq_accesses::total      8982717                       # number of WriteReq accesses(hits+misses)
system.cpu.dcache.WriteReq_miss_rate::.switch_cpus.data     0.014257                       # miss rate for WriteReq accesses
system.cpu.dcache.WriteReq_miss_rate::total     0.014257                       # miss rate for WriteReq accesses
system.cpu.dcache.WriteReq_avg_miss_latency::.switch_cpus.data 90949.025011                       # average WriteReq miss latency
system.cpu.dcache.WriteReq_avg_miss_latency::total 90949.025011                       # average WriteReq miss latency
system.cpu.dcache.WriteReq_mshr_hits::.switch_cpus.data           99                       # number of WriteReq MSHR hits
system.cpu.dcache.WriteReq_mshr_hits::total           99                       # number of WriteReq MSHR hits
system.cpu.dcache.WriteReq_mshr_misses::.switch_cpus.data       127964                       # number of WriteReq MSHR misses
system.cpu.dcache.WriteReq_mshr_misses::total       127964                       # number of WriteReq MSHR misses
system.cpu.dcache.WriteReq_mshr_miss_latency::.switch_cpus.data  11516789990                       # number of WriteReq MSHR miss cycles
system.cpu.dcache.WriteReq_mshr_miss_latency::total  11516789990                       # number of WriteReq MSHR miss cycles
system.cpu.dcache.WriteReq_mshr_miss_rate::.switch_cpus.data     0.014246                       # mshr miss rate for WriteReq accesses
system.cpu.dcache.WriteReq_mshr_miss_rate::total     0.014246                       # mshr miss rate for WriteReq accesses
system.cpu.dcache.WriteReq_avg_mshr_miss_latency::.switch_cpus.data 90000.234363                       # average WriteReq mshr miss latency
system.cpu.dcache.WriteReq_avg_mshr_miss_latency::total 90000.234363                       # average WriteReq mshr miss latency
system.cpu.dcache.SoftPFReq_hits::.switch_cpus.data        60877                       # number of SoftPFReq hits
system.cpu.dcache.SoftPFReq_hits::total         60877                       # number of SoftPFReq hits
system.cpu.dcache.SoftPFReq_misses::.switch_cpus.data        12645                       # number of SoftPFReq misses
system.cpu.dcache.SoftPFReq_misses::total        12645                       # number of SoftPFReq misses
system.cpu.dcache.SoftPFReq_accesses::.switch_cpus.data        73522                       # number of SoftPFReq accesses(hits+misses)
system.cpu.dcache.SoftPFReq_accesses::total        73522                       # number of SoftPFReq accesses(hits+misses)
system.cpu.dcache.SoftPFReq_miss_rate::.switch_cpus.data     0.171989                       # miss rate for SoftPFReq accesses
system.cpu.dcache.SoftPFReq_miss_rate::total     0.171989                       # miss rate for SoftPFReq accesses
system.cpu.dcache.SoftPFReq_mshr_misses::.switch_cpus.data         5443                       # number of SoftPFReq MSHR misses
system.cpu.dcache.SoftPFReq_mshr_misses::total         5443                       # number of SoftPFReq MSHR misses
system.cpu.dcache.SoftPFReq_mshr_miss_latency::.switch_cpus.data    483750500                       # number of SoftPFReq MSHR miss cycles
system.cpu.dcache.SoftPFReq_mshr_miss_latency::total    483750500                       # number of SoftPFReq MSHR miss cycles
system.cpu.dcache.SoftPFReq_mshr_miss_rate::.switch_cpus.data     0.074032                       # mshr miss rate for SoftPFReq accesses
system.cpu.dcache.SoftPFReq_mshr_miss_rate::total     0.074032                       # mshr miss rate for SoftPFReq accesses
system.cpu.dcache.SoftPFReq_avg_mshr_miss_latency::.switch_cpus.data 88875.711924                       # average SoftPFReq mshr miss latency
system.cpu.dcache.SoftPFReq_avg_mshr_miss_latency::total 88875.711924                       # average SoftPFReq mshr miss latency
system.cpu.dcache.tags.pwrStateResidencyTicks::UNDEFINED 371693630103500                       # Cumulative time (in ticks) in various power states
system.cpu.dcache.tags.tagsinuse             0.089442                       # Cycle average of tags in use
system.cpu.dcache.tags.total_refs            37579052                       # Total number of references to valid blocks.
system.cpu.dcache.tags.sampled_refs            451498                       # Sample count of references to valid blocks.
system.cpu.dcache.tags.avg_refs             83.231935                       # Average number of references to valid blocks.
system.cpu.dcache.tags.warmup_cycle      371661094883500                       # Cycle when the warmup percentage was hit.
system.cpu.dcache.tags.occ_blocks::.cpu.data     0.000004                       # Average occupied blocks per requestor
system.cpu.dcache.tags.occ_blocks::.switch_cpus.data     0.089439                       # Average occupied blocks per requestor
system.cpu.dcache.tags.occ_percent::.cpu.data     0.000000                       # Average percentage of cache occupancy
system.cpu.dcache.tags.occ_percent::.switch_cpus.data     0.000087                       # Average percentage of cache occupancy
system.cpu.dcache.tags.occ_percent::total     0.000087                       # Average percentage of cache occupancy
system.cpu.dcache.tags.occ_task_id_blocks::1024         1024                       # Occupied blocks per task id
system.cpu.dcache.tags.age_task_id_blocks_1024::0          116                       # Occupied blocks per task id
system.cpu.dcache.tags.age_task_id_blocks_1024::1          759                       # Occupied blocks per task id
system.cpu.dcache.tags.age_task_id_blocks_1024::2          137                       # Occupied blocks per task id
system.cpu.dcache.tags.age_task_id_blocks_1024::3           12                       # Occupied blocks per task id
system.cpu.dcache.tags.occ_task_id_percent::1024            1                       # Percentage of cache occupancy per task id
system.cpu.dcache.tags.tag_accesses          76047818                       # Number of tag accesses
system.cpu.dcache.tags.data_accesses         76047818                       # Number of data accesses

---------- End Simulation Statistics   ----------
