
---------- Begin Simulation Statistics ----------
final_tick                               560740530527000                       # Number of ticks from beginning of simulation (restored from checkpoints and never reset)
host_inst_rate                                  44809                       # Simulator instruction rate (inst/s)
host_mem_usage                                 879136                       # Number of bytes of host memory used
host_op_rate                                   100720                       # Simulator op (including micro ops) rate (op/s)
host_seconds                                   223.17                       # Real time elapsed on the host
host_tick_rate                               29139856                       # Simulator tick rate (ticks/s)
sim_freq                                 1000000000000                       # Frequency of simulated ticks
sim_insts                                    10000008                       # Number of instructions simulated
sim_ops                                      22477347                       # Number of ops (including micro ops) simulated
sim_seconds                                  0.006503                       # Number of seconds simulated
sim_ticks                                  6503077000                       # Number of ticks simulated
system.cpu.committedInsts                           8                       # Number of instructions committed
system.cpu.committedOps                            16                       # Number of ops (including micro ops) committed
system.cpu.dtb.rdAccesses                           2                       # TLB accesses on read requests
system.cpu.dtb.rdMisses                             0                       # TLB misses on read requests
system.cpu.dtb.wrAccesses                           4                       # TLB accesses on write requests
system.cpu.dtb.wrMisses                             0                       # TLB misses on write requests
system.cpu.idle_fraction                            0                       # Percentage of idle cycles
system.cpu.itb.rdAccesses                           0                       # TLB accesses on read requests
system.cpu.itb.rdMisses                             0                       # TLB misses on read requests
system.cpu.itb.wrAccesses                          13                       # TLB accesses on write requests
system.cpu.itb.wrMisses                             0                       # TLB misses on write requests
system.cpu.not_idle_fraction                        1                       # Percentage of non-idle cycles
system.cpu.numCycles                               21                       # number of cpu cycles simulated
system.cpu.numWorkItemsCompleted                    0                       # number of work items this cpu completed
system.cpu.numWorkItemsStarted                      0                       # number of work items this cpu started
system.cpu.num_busy_cycles                         21                       # Number of busy cycles
system.cpu.num_conditional_control_insts            0                       # number of instructions that are conditional controls
system.cpu.num_fp_alu_accesses                     16                       # Number of float alu accesses
system.cpu.num_fp_insts                            16                       # number of float instructions
system.cpu.num_fp_register_reads                   32                       # number of times the floating registers were read
system.cpu.num_fp_register_writes                  12                       # number of times the floating registers were written
system.cpu.num_func_calls                           0                       # number of times a function call or return occured
system.cpu.num_idle_cycles                          0                       # Number of idle cycles
system.cpu.num_int_alu_accesses                     6                       # Number of integer alu accesses
system.cpu.num_int_insts                            6                       # number of integer instructions
system.cpu.num_int_register_reads                  18                       # number of times the integer registers were read
system.cpu.num_int_register_writes                  0                       # number of times the integer registers were written
system.cpu.num_load_insts                           2                       # Number of load instructions
system.cpu.num_mem_refs                             6                       # number of memory refs
system.cpu.num_store_insts                          4                       # Number of store instructions
system.cpu.num_vec_alu_accesses                     0                       # Number of vector alu accesses
system.cpu.num_vec_insts                            0                       # number of vector instructions
system.cpu.num_vec_register_reads                   0                       # number of times the vector registers were read
system.cpu.num_vec_register_writes                  0                       # number of times the vector registers were written
system.cpu.op_class::No_OpClass                     0      0.00%      0.00% # Class of executed instruction
system.cpu.op_class::IntAlu                         2     12.50%     12.50% # Class of executed instruction
system.cpu.op_class::IntMult                        0      0.00%     12.50% # Class of executed instruction
system.cpu.op_class::IntDiv                         0      0.00%     12.50% # Class of executed instruction
system.cpu.op_class::FloatAdd                       0      0.00%     12.50% # Class of executed instruction
system.cpu.op_class::FloatCmp                       0      0.00%     12.50% # Class of executed instruction
system.cpu.op_class::FloatCvt                       0      0.00%     12.50% # Class of executed instruction
system.cpu.op_class::FloatMult                      0      0.00%     12.50% # Class of executed instruction
system.cpu.op_class::FloatMultAcc                   0      0.00%     12.50% # Class of executed instruction
system.cpu.op_class::FloatDiv                       0      0.00%     12.50% # Class of executed instruction
system.cpu.op_class::FloatMisc                      0      0.00%     12.50% # Class of executed instruction
system.cpu.op_class::FloatSqrt                      0      0.00%     12.50% # Class of executed instruction
system.cpu.op_class::SimdAdd                        0      0.00%     12.50% # Class of executed instruction
system.cpu.op_class::SimdAddAcc                     0      0.00%     12.50% # Class of executed instruction
system.cpu.op_class::SimdAlu                        0      0.00%     12.50% # Class of executed instruction
system.cpu.op_class::SimdCmp                        0      0.00%     12.50% # Class of executed instruction
system.cpu.op_class::SimdCvt                        0      0.00%     12.50% # Class of executed instruction
system.cpu.op_class::SimdMisc                       0      0.00%     12.50% # Class of executed instruction
system.cpu.op_class::SimdMult                       0      0.00%     12.50% # Class of executed instruction
system.cpu.op_class::SimdMultAcc                    0      0.00%     12.50% # Class of executed instruction
system.cpu.op_class::SimdShift                      0      0.00%     12.50% # Class of executed instruction
system.cpu.op_class::SimdShiftAcc                   0      0.00%     12.50% # Class of executed instruction
system.cpu.op_class::SimdDiv                        0      0.00%     12.50% # Class of executed instruction
system.cpu.op_class::SimdSqrt                       0      0.00%     12.50% # Class of executed instruction
system.cpu.op_class::SimdFloatAdd                   6     37.50%     50.00% # Class of executed instruction
system.cpu.op_class::SimdFloatAlu                   0      0.00%     50.00% # Class of executed instruction
system.cpu.op_class::SimdFloatCmp                   0      0.00%     50.00% # Class of executed instruction
system.cpu.op_class::SimdFloatCvt                   0      0.00%     50.00% # Class of executed instruction
system.cpu.op_class::SimdFloatDiv                   0      0.00%     50.00% # Class of executed instruction
system.cpu.op_class::SimdFloatMisc                  0      0.00%     50.00% # Class of executed instruction
system.cpu.op_class::SimdFloatMult                  2     12.50%     62.50% # Class of executed instruction
system.cpu.op_class::SimdFloatMultAcc               0      0.00%     62.50% # Class of executed instruction
system.cpu.op_class::SimdFloatSqrt                  0      0.00%     62.50% # Class of executed instruction
system.cpu.op_class::SimdReduceAdd                  0      0.00%     62.50% # Class of executed instruction
system.cpu.op_class::SimdReduceAlu                  0      0.00%     62.50% # Class of executed instruction
system.cpu.op_class::SimdReduceCmp                  0      0.00%     62.50% # Class of executed instruction
system.cpu.op_class::SimdFloatReduceAdd             0      0.00%     62.50% # Class of executed instruction
system.cpu.op_class::SimdFloatReduceCmp             0      0.00%     62.50% # Class of executed instruction
system.cpu.op_class::SimdAes                        0      0.00%     62.50% # Class of executed instruction
system.cpu.op_class::SimdAesMix                     0      0.00%     62.50% # Class of executed instruction
system.cpu.op_class::SimdSha1Hash                   0      0.00%     62.50% # Class of executed instruction
system.cpu.op_class::SimdSha1Hash2                  0      0.00%     62.50% # Class of executed instruction
system.cpu.op_class::SimdSha256Hash                 0      0.00%     62.50% # Class of executed instruction
system.cpu.op_class::SimdSha256Hash2                0      0.00%     62.50% # Class of executed instruction
system.cpu.op_class::SimdShaSigma2                  0      0.00%     62.50% # Class of executed instruction
system.cpu.op_class::SimdShaSigma3                  0      0.00%     62.50% # Class of executed instruction
system.cpu.op_class::SimdPredAlu                    0      0.00%     62.50% # Class of executed instruction
system.cpu.op_class::MemRead                        0      0.00%     62.50% # Class of executed instruction
system.cpu.op_class::MemWrite                       0      0.00%     62.50% # Class of executed instruction
system.cpu.op_class::FloatMemRead                   2     12.50%     75.00% # Class of executed instruction
system.cpu.op_class::FloatMemWrite                  4     25.00%    100.00% # Class of executed instruction
system.cpu.op_class::IprAccess                      0      0.00%    100.00% # Class of executed instruction
system.cpu.op_class::InstPrefetch                   0      0.00%    100.00% # Class of executed instruction
system.cpu.op_class::total                         16                       # Class of executed instruction
system.cpu.workload.numSyscalls                     0                       # Number of system calls
system.l2.prefetcher.num_hwpf_issued            33681                       # number of hwpf issued
system.l2.prefetcher.pfBufferHit                    0                       # number of redundant prefetches already in prefetch queue
system.l2.prefetcher.pfIdentified               33681                       # number of prefetch candidates identified
system.l2.prefetcher.pfInCache                      0                       # number of redundant prefetches already in cache/mshr dropped
system.l2.prefetcher.pfRemovedFull                  0                       # number of prefetches dropped due to prefetch queue size
system.l2.prefetcher.pfSpanPage                  1303                       # number of prefetches that crossed the page
system.membus.snoop_filter.hit_multi_requests            0                       # Number of requests hitting in the snoop filter with multiple (>1) holders of the requested data.
system.membus.snoop_filter.hit_multi_snoops            0                       # Number of snoops hitting in the snoop filter with multiple (>1) holders of the requested data.
system.membus.snoop_filter.hit_single_requests        91828                       # Number of requests hitting in the snoop filter with a single holder of the requested data.
system.membus.snoop_filter.hit_single_snoops            0                       # Number of snoops hitting in the snoop filter with a single holder of the requested data.
system.membus.snoop_filter.tot_requests        188067                       # Total number of requests made to the snoop filter.
system.membus.snoop_filter.tot_snoops               0                       # Total number of snoops made to the snoop filter.
system.switch_cpus.branchPred.BTBCorrect            0                       # Number of correct BTB predictions (this stat may not work properly.
system.switch_cpus.branchPred.BTBHitPct      0.000000                       # BTB Hit Percentage
system.switch_cpus.branchPred.BTBHits               0                       # Number of BTB hits
system.switch_cpus.branchPred.BTBLookups        35141                       # Number of BTB lookups
system.switch_cpus.branchPred.RASInCorrect            0                       # Number of incorrect RAS predictions.
system.switch_cpus.branchPred.condIncorrect          793                       # Number of conditional branches incorrect
system.switch_cpus.branchPred.condPredicted        40224                       # Number of conditional branches predicted
system.switch_cpus.branchPred.indirectHits        28198                       # Number of indirect target hits.
system.switch_cpus.branchPred.indirectLookups        35141                       # Number of indirect predictor lookups.
system.switch_cpus.branchPred.indirectMisses         6943                       # Number of indirect misses.
system.switch_cpus.branchPred.lookups           45713                       # Number of BP lookups
system.switch_cpus.branchPred.usedRAS            5113                       # Number of times the RAS was used to get a target.
system.switch_cpus.branchPredindirectMispredicted           55                       # Number of mispredicted indirect branches.
system.switch_cpus.cc_regfile_reads            196495                       # number of cc regfile reads
system.switch_cpus.cc_regfile_writes           329270                       # number of cc regfile writes
system.switch_cpus.commit.amos                      0                       # Number of atomic instructions committed
system.switch_cpus.commit.branchMispredicts          793                       # The number of times a branch was mispredicted
system.switch_cpus.commit.branches              19425                       # Number of branches committed
system.switch_cpus.commit.bw_lim_events       1548142                       # number cycles where commit BW limit reached
system.switch_cpus.commit.commitNonSpecStalls          320                       # The number of times commit has been forced to stall to communicate backwards
system.switch_cpus.commit.commitSquashedInsts       468724                       # The number of squashed insts skipped by commit
system.switch_cpus.commit.committedInsts     10000000                       # Number of instructions committed
system.switch_cpus.commit.committedOps       22477331                       # Number of ops (including micro ops) committed
system.switch_cpus.commit.committed_per_cycle::samples     12908803                       # Number of insts commited each cycle
system.switch_cpus.commit.committed_per_cycle::mean     1.741241                       # Number of insts commited each cycle
system.switch_cpus.commit.committed_per_cycle::stdev     2.833118                       # Number of insts commited each cycle
system.switch_cpus.commit.committed_per_cycle::underflows            0      0.00%      0.00% # Number of insts commited each cycle
system.switch_cpus.commit.committed_per_cycle::0      8228408     63.74%     63.74% # Number of insts commited each cycle
system.switch_cpus.commit.committed_per_cycle::1       679279      5.26%     69.00% # Number of insts commited each cycle
system.switch_cpus.commit.committed_per_cycle::2       826025      6.40%     75.40% # Number of insts commited each cycle
system.switch_cpus.commit.committed_per_cycle::3       267069      2.07%     77.47% # Number of insts commited each cycle
system.switch_cpus.commit.committed_per_cycle::4       565969      4.38%     81.86% # Number of insts commited each cycle
system.switch_cpus.commit.committed_per_cycle::5       263571      2.04%     83.90% # Number of insts commited each cycle
system.switch_cpus.commit.committed_per_cycle::6       334452      2.59%     86.49% # Number of insts commited each cycle
system.switch_cpus.commit.committed_per_cycle::7       195888      1.52%     88.01% # Number of insts commited each cycle
system.switch_cpus.commit.committed_per_cycle::8      1548142     11.99%    100.00% # Number of insts commited each cycle
system.switch_cpus.commit.committed_per_cycle::overflows            0      0.00%    100.00% # Number of insts commited each cycle
system.switch_cpus.commit.committed_per_cycle::min_value            0                       # Number of insts commited each cycle
system.switch_cpus.commit.committed_per_cycle::max_value            8                       # Number of insts commited each cycle
system.switch_cpus.commit.committed_per_cycle::total     12908803                       # Number of insts commited each cycle
system.switch_cpus.commit.fp_insts           21302745                       # Number of committed floating point instructions.
system.switch_cpus.commit.function_calls          320                       # Number of function calls committed.
system.switch_cpus.commit.int_insts          10363713                       # Number of committed integer instructions.
system.switch_cpus.commit.loads               7651132                       # Number of loads committed
system.switch_cpus.commit.membars                   0                       # Number of memory barriers committed
system.switch_cpus.commit.op_class_0::No_OpClass          637      0.00%      0.00% # Class of committed instruction
system.switch_cpus.commit.op_class_0::IntAlu      3034804     13.50%     13.50% # Class of committed instruction
system.switch_cpus.commit.op_class_0::IntMult          658      0.00%     13.51% # Class of committed instruction
system.switch_cpus.commit.op_class_0::IntDiv            0      0.00%     13.51% # Class of committed instruction
system.switch_cpus.commit.op_class_0::FloatAdd          328      0.00%     13.51% # Class of committed instruction
system.switch_cpus.commit.op_class_0::FloatCmp            0      0.00%     13.51% # Class of committed instruction
system.switch_cpus.commit.op_class_0::FloatCvt            0      0.00%     13.51% # Class of committed instruction
system.switch_cpus.commit.op_class_0::FloatMult            0      0.00%     13.51% # Class of committed instruction
system.switch_cpus.commit.op_class_0::FloatMultAcc            0      0.00%     13.51% # Class of committed instruction
system.switch_cpus.commit.op_class_0::FloatDiv            0      0.00%     13.51% # Class of committed instruction
system.switch_cpus.commit.op_class_0::FloatMisc            0      0.00%     13.51% # Class of committed instruction
system.switch_cpus.commit.op_class_0::FloatSqrt            0      0.00%     13.51% # Class of committed instruction
system.switch_cpus.commit.op_class_0::SimdAdd            0      0.00%     13.51% # Class of committed instruction
system.switch_cpus.commit.op_class_0::SimdAddAcc            0      0.00%     13.51% # Class of committed instruction
system.switch_cpus.commit.op_class_0::SimdAlu        47726      0.21%     13.72% # Class of committed instruction
system.switch_cpus.commit.op_class_0::SimdCmp            0      0.00%     13.72% # Class of committed instruction
system.switch_cpus.commit.op_class_0::SimdCvt            0      0.00%     13.72% # Class of committed instruction
system.switch_cpus.commit.op_class_0::SimdMisc            0      0.00%     13.72% # Class of committed instruction
system.switch_cpus.commit.op_class_0::SimdMult            0      0.00%     13.72% # Class of committed instruction
system.switch_cpus.commit.op_class_0::SimdMultAcc            0      0.00%     13.72% # Class of committed instruction
system.switch_cpus.commit.op_class_0::SimdShift            0      0.00%     13.72% # Class of committed instruction
system.switch_cpus.commit.op_class_0::SimdShiftAcc            0      0.00%     13.72% # Class of committed instruction
system.switch_cpus.commit.op_class_0::SimdDiv            0      0.00%     13.72% # Class of committed instruction
system.switch_cpus.commit.op_class_0::SimdSqrt            0      0.00%     13.72% # Class of committed instruction
system.switch_cpus.commit.op_class_0::SimdFloatAdd      5476711     24.37%     38.09% # Class of committed instruction
system.switch_cpus.commit.op_class_0::SimdFloatAlu            0      0.00%     38.09% # Class of committed instruction
system.switch_cpus.commit.op_class_0::SimdFloatCmp            0      0.00%     38.09% # Class of committed instruction
system.switch_cpus.commit.op_class_0::SimdFloatCvt            0      0.00%     38.09% # Class of committed instruction
system.switch_cpus.commit.op_class_0::SimdFloatDiv        11440      0.05%     38.14% # Class of committed instruction
system.switch_cpus.commit.op_class_0::SimdFloatMisc            0      0.00%     38.14% # Class of committed instruction
system.switch_cpus.commit.op_class_0::SimdFloatMult      4002296     17.81%     55.94% # Class of committed instruction
system.switch_cpus.commit.op_class_0::SimdFloatMultAcc            0      0.00%     55.94% # Class of committed instruction
system.switch_cpus.commit.op_class_0::SimdFloatSqrt            0      0.00%     55.94% # Class of committed instruction
system.switch_cpus.commit.op_class_0::SimdReduceAdd            0      0.00%     55.94% # Class of committed instruction
system.switch_cpus.commit.op_class_0::SimdReduceAlu            0      0.00%     55.94% # Class of committed instruction
system.switch_cpus.commit.op_class_0::SimdReduceCmp            0      0.00%     55.94% # Class of committed instruction
system.switch_cpus.commit.op_class_0::SimdFloatReduceAdd            0      0.00%     55.94% # Class of committed instruction
system.switch_cpus.commit.op_class_0::SimdFloatReduceCmp            0      0.00%     55.94% # Class of committed instruction
system.switch_cpus.commit.op_class_0::SimdAes            0      0.00%     55.94% # Class of committed instruction
system.switch_cpus.commit.op_class_0::SimdAesMix            0      0.00%     55.94% # Class of committed instruction
system.switch_cpus.commit.op_class_0::SimdSha1Hash            0      0.00%     55.94% # Class of committed instruction
system.switch_cpus.commit.op_class_0::SimdSha1Hash2            0      0.00%     55.94% # Class of committed instruction
system.switch_cpus.commit.op_class_0::SimdSha256Hash            0      0.00%     55.94% # Class of committed instruction
system.switch_cpus.commit.op_class_0::SimdSha256Hash2            0      0.00%     55.94% # Class of committed instruction
system.switch_cpus.commit.op_class_0::SimdShaSigma2            0      0.00%     55.94% # Class of committed instruction
system.switch_cpus.commit.op_class_0::SimdShaSigma3            0      0.00%     55.94% # Class of committed instruction
system.switch_cpus.commit.op_class_0::SimdPredAlu            0      0.00%     55.94% # Class of committed instruction
system.switch_cpus.commit.op_class_0::MemRead       657014      2.92%     58.87% # Class of committed instruction
system.switch_cpus.commit.op_class_0::MemWrite        55633      0.25%     59.11% # Class of committed instruction
system.switch_cpus.commit.op_class_0::FloatMemRead      6994118     31.12%     90.23% # Class of committed instruction
system.switch_cpus.commit.op_class_0::FloatMemWrite      2195966      9.77%    100.00% # Class of committed instruction
system.switch_cpus.commit.op_class_0::IprAccess            0      0.00%    100.00% # Class of committed instruction
system.switch_cpus.commit.op_class_0::InstPrefetch            0      0.00%    100.00% # Class of committed instruction
system.switch_cpus.commit.op_class_0::total     22477331                       # Class of committed instruction
system.switch_cpus.commit.refs                9902731                       # Number of memory references committed
system.switch_cpus.commit.swp_count                 0                       # Number of s/w prefetches committed
system.switch_cpus.commit.vec_insts                 0                       # Number of committed Vector instructions.
system.switch_cpus.committedInsts            10000000                       # Number of Instructions Simulated
system.switch_cpus.committedOps              22477331                       # Number of Ops (including micro ops) Simulated
system.switch_cpus.cpi                       1.300613                       # CPI: Cycles Per Instruction
system.switch_cpus.cpi_total                 1.300613                       # CPI: Total CPI of All Threads
system.switch_cpus.decode.BlockedCycles       9129059                       # Number of cycles decode is blocked
system.switch_cpus.decode.DecodedInsts       23108107                       # Number of instructions handled by decode
system.switch_cpus.decode.IdleCycles           736502                       # Number of cycles decode is idle
system.switch_cpus.decode.RunCycles           2471498                       # Number of cycles decode is running
system.switch_cpus.decode.SquashCycles           6067                       # Number of cycles decode is squashing
system.switch_cpus.decode.UnblockCycles        626918                       # Number of cycles decode is unblocking
system.switch_cpus.dtb.rdAccesses             7785984                       # TLB accesses on read requests
system.switch_cpus.dtb.rdMisses                  1498                       # TLB misses on read requests
system.switch_cpus.dtb.wrAccesses             2366919                       # TLB accesses on write requests
system.switch_cpus.dtb.wrMisses                   569                       # TLB misses on write requests
system.switch_cpus.fetch.Branches               45713                       # Number of branches that fetch encountered
system.switch_cpus.fetch.CacheLines           1083951                       # Number of cache lines fetched
system.switch_cpus.fetch.Cycles              11855918                       # Number of cycles fetch has run and was not squashing or blocked
system.switch_cpus.fetch.IcacheSquashes           128                       # Number of outstanding Icache misses that were squashed
system.switch_cpus.fetch.Insts               10473105                       # Number of instructions fetch has processed
system.switch_cpus.fetch.SquashCycles           12134                       # Number of cycles fetch has spent squashing
system.switch_cpus.fetch.branchRate          0.003515                       # Number of branch fetches per cycle
system.switch_cpus.fetch.icacheStallCycles      1108401                       # Number of cycles fetch is stalled on an Icache miss
system.switch_cpus.fetch.predictedBranches        33311                       # Number of branches that fetch has predicted taken
system.switch_cpus.fetch.rate                0.805244                       # Number of inst fetches per cycle
system.switch_cpus.fetch.rateDist::samples     12970386                       # Number of instructions fetched each cycle (Total)
system.switch_cpus.fetch.rateDist::mean      1.796717                       # Number of instructions fetched each cycle (Total)
system.switch_cpus.fetch.rateDist::stdev     3.172720                       # Number of instructions fetched each cycle (Total)
system.switch_cpus.fetch.rateDist::underflows            0      0.00%      0.00% # Number of instructions fetched each cycle (Total)
system.switch_cpus.fetch.rateDist::0          9491566     73.18%     73.18% # Number of instructions fetched each cycle (Total)
system.switch_cpus.fetch.rateDist::1           104692      0.81%     73.99% # Number of instructions fetched each cycle (Total)
system.switch_cpus.fetch.rateDist::2           215511      1.66%     75.65% # Number of instructions fetched each cycle (Total)
system.switch_cpus.fetch.rateDist::3           168965      1.30%     76.95% # Number of instructions fetched each cycle (Total)
system.switch_cpus.fetch.rateDist::4           178572      1.38%     78.33% # Number of instructions fetched each cycle (Total)
system.switch_cpus.fetch.rateDist::5           144046      1.11%     79.44% # Number of instructions fetched each cycle (Total)
system.switch_cpus.fetch.rateDist::6           218048      1.68%     81.12% # Number of instructions fetched each cycle (Total)
system.switch_cpus.fetch.rateDist::7            73188      0.56%     81.68% # Number of instructions fetched each cycle (Total)
system.switch_cpus.fetch.rateDist::8          2375798     18.32%    100.00% # Number of instructions fetched each cycle (Total)
system.switch_cpus.fetch.rateDist::overflows            0      0.00%    100.00% # Number of instructions fetched each cycle (Total)
system.switch_cpus.fetch.rateDist::min_value            0                       # Number of instructions fetched each cycle (Total)
system.switch_cpus.fetch.rateDist::max_value            8                       # Number of instructions fetched each cycle (Total)
system.switch_cpus.fetch.rateDist::total     12970386                       # Number of instructions fetched each cycle (Total)
system.switch_cpus.fp_regfile_reads          35988576                       # number of floating regfile reads
system.switch_cpus.fp_regfile_writes         19171778                       # number of floating regfile writes
system.switch_cpus.idleCycles                   35747                       # Total number of cycles that the CPU has spent unscheduled due to idling
system.switch_cpus.iew.branchMispredicts          823                       # Number of branch mispredicts detected at execute
system.switch_cpus.iew.exec_branches            36999                       # Number of branches executed
system.switch_cpus.iew.exec_nop                     0                       # number of nop insts executed
system.switch_cpus.iew.exec_rate             1.777549                       # Inst execution rate
system.switch_cpus.iew.exec_refs             10301559                       # number of memory reference insts executed
system.switch_cpus.iew.exec_stores            2366919                       # Number of stores executed
system.switch_cpus.iew.exec_swp                     0                       # number of swp insts executed
system.switch_cpus.iew.iewBlockCycles          333207                       # Number of cycles IEW is blocking
system.switch_cpus.iew.iewDispLoadInsts       7789837                       # Number of dispatched load instructions
system.switch_cpus.iew.iewDispNonSpecInsts            0                       # Number of dispatched non-speculative instructions
system.switch_cpus.iew.iewDispSquashedInsts           15                       # Number of squashed instructions skipped by dispatch
system.switch_cpus.iew.iewDispStoreInsts      2418782                       # Number of dispatched store instructions
system.switch_cpus.iew.iewDispatchedInsts     23042183                       # Number of instructions dispatched to IQ
system.switch_cpus.iew.iewExecLoadInsts       7934640                       # Number of load instructions executed
system.switch_cpus.iew.iewExecSquashedInsts         4933                       # Number of squashed instructions skipped in execute
system.switch_cpus.iew.iewExecutedInsts      23119033                       # Number of executed instructions
system.switch_cpus.iew.iewIQFullEvents           3336                       # Number of times the IQ has become full, causing a stall
system.switch_cpus.iew.iewIdleCycles                0                       # Number of cycles IEW is idle
system.switch_cpus.iew.iewLSQFullEvents       2608775                       # Number of times the LSQ has become full, causing a stall
system.switch_cpus.iew.iewSquashCycles           6067                       # Number of cycles IEW is squashing
system.switch_cpus.iew.iewUnblockCycles       2617560                       # Number of cycles IEW is unblocking
system.switch_cpus.iew.lsq.thread0.blockedLoads            0                       # Number of blocked loads due to partial load-store forwarding
system.switch_cpus.iew.lsq.thread0.cacheBlocked        27581                       # Number of times an access to memory failed due to the cache being blocked
system.switch_cpus.iew.lsq.thread0.forwLoads       581898                       # Number of loads that had data forwarded from stores
system.switch_cpus.iew.lsq.thread0.ignoredResponses           11                       # Number of memory responses ignored because the instruction is squashed
system.switch_cpus.iew.lsq.thread0.invAddrLoads            0                       # Number of loads ignored due to an invalid address
system.switch_cpus.iew.lsq.thread0.invAddrSwpfs            0                       # Number of software prefetches ignored due to an invalid address
system.switch_cpus.iew.lsq.thread0.memOrderViolation          240                       # Number of memory ordering violations
system.switch_cpus.iew.lsq.thread0.rescheduledLoads            0                       # Number of loads that were rescheduled
system.switch_cpus.iew.lsq.thread0.squashedLoads       138684                       # Number of loads squashed
system.switch_cpus.iew.lsq.thread0.squashedStores       167175                       # Number of stores squashed
system.switch_cpus.iew.memOrderViolationEvents          240                       # Number of memory order violations
system.switch_cpus.iew.predictedNotTakenIncorrect          130                       # Number of branches that were predicted not taken incorrectly
system.switch_cpus.iew.predictedTakenIncorrect          693                       # Number of branches that were predicted taken incorrectly
system.switch_cpus.iew.wb_consumers          28850941                       # num instructions consuming a value
system.switch_cpus.iew.wb_count              22918422                       # cumulative count of insts written-back
system.switch_cpus.iew.wb_fanout             0.606350                       # average fanout of values written-back
system.switch_cpus.iew.wb_producers          17493776                       # num instructions producing a value
system.switch_cpus.iew.wb_rate               1.762124                       # insts written-back per cycle
system.switch_cpus.iew.wb_sent               22961459                       # cumulative count of insts sent to commit
system.switch_cpus.int_regfile_reads         21276154                       # number of integer regfile reads
system.switch_cpus.int_regfile_writes         1345081                       # number of integer regfile writes
system.switch_cpus.ipc                       0.768868                       # IPC: Instructions Per Cycle
system.switch_cpus.ipc_total                 0.768868                       # IPC: Total IPC of All Threads
system.switch_cpus.iq.FU_type_0::No_OpClass        41151      0.18%      0.18% # Type of FU issued
system.switch_cpus.iq.FU_type_0::IntAlu       3237356     14.00%     14.18% # Type of FU issued
system.switch_cpus.iq.FU_type_0::IntMult          658      0.00%     14.18% # Type of FU issued
system.switch_cpus.iq.FU_type_0::IntDiv             0      0.00%     14.18% # Type of FU issued
system.switch_cpus.iq.FU_type_0::FloatAdd         2681      0.01%     14.19% # Type of FU issued
system.switch_cpus.iq.FU_type_0::FloatCmp            0      0.00%     14.19% # Type of FU issued
system.switch_cpus.iq.FU_type_0::FloatCvt            0      0.00%     14.19% # Type of FU issued
system.switch_cpus.iq.FU_type_0::FloatMult            0      0.00%     14.19% # Type of FU issued
system.switch_cpus.iq.FU_type_0::FloatMultAcc            0      0.00%     14.19% # Type of FU issued
system.switch_cpus.iq.FU_type_0::FloatDiv            0      0.00%     14.19% # Type of FU issued
system.switch_cpus.iq.FU_type_0::FloatMisc            0      0.00%     14.19% # Type of FU issued
system.switch_cpus.iq.FU_type_0::FloatSqrt            0      0.00%     14.19% # Type of FU issued
system.switch_cpus.iq.FU_type_0::SimdAdd            0      0.00%     14.19% # Type of FU issued
system.switch_cpus.iq.FU_type_0::SimdAddAcc            0      0.00%     14.19% # Type of FU issued
system.switch_cpus.iq.FU_type_0::SimdAlu        47763      0.21%     14.40% # Type of FU issued
system.switch_cpus.iq.FU_type_0::SimdCmp            0      0.00%     14.40% # Type of FU issued
system.switch_cpus.iq.FU_type_0::SimdCvt            0      0.00%     14.40% # Type of FU issued
system.switch_cpus.iq.FU_type_0::SimdMisc            0      0.00%     14.40% # Type of FU issued
system.switch_cpus.iq.FU_type_0::SimdMult            0      0.00%     14.40% # Type of FU issued
system.switch_cpus.iq.FU_type_0::SimdMultAcc            0      0.00%     14.40% # Type of FU issued
system.switch_cpus.iq.FU_type_0::SimdShift            0      0.00%     14.40% # Type of FU issued
system.switch_cpus.iq.FU_type_0::SimdShiftAcc            0      0.00%     14.40% # Type of FU issued
system.switch_cpus.iq.FU_type_0::SimdDiv            0      0.00%     14.40% # Type of FU issued
system.switch_cpus.iq.FU_type_0::SimdSqrt            0      0.00%     14.40% # Type of FU issued
system.switch_cpus.iq.FU_type_0::SimdFloatAdd      5476932     23.69%     38.08% # Type of FU issued
system.switch_cpus.iq.FU_type_0::SimdFloatAlu            0      0.00%     38.08% # Type of FU issued
system.switch_cpus.iq.FU_type_0::SimdFloatCmp            0      0.00%     38.08% # Type of FU issued
system.switch_cpus.iq.FU_type_0::SimdFloatCvt            0      0.00%     38.08% # Type of FU issued
system.switch_cpus.iq.FU_type_0::SimdFloatDiv        11440      0.05%     38.13% # Type of FU issued
system.switch_cpus.iq.FU_type_0::SimdFloatMisc            0      0.00%     38.13% # Type of FU issued
system.switch_cpus.iq.FU_type_0::SimdFloatMult      4002394     17.31%     55.44% # Type of FU issued
system.switch_cpus.iq.FU_type_0::SimdFloatMultAcc            0      0.00%     55.44% # Type of FU issued
system.switch_cpus.iq.FU_type_0::SimdFloatSqrt            0      0.00%     55.44% # Type of FU issued
system.switch_cpus.iq.FU_type_0::SimdReduceAdd            0      0.00%     55.44% # Type of FU issued
system.switch_cpus.iq.FU_type_0::SimdReduceAlu            0      0.00%     55.44% # Type of FU issued
system.switch_cpus.iq.FU_type_0::SimdReduceCmp            0      0.00%     55.44% # Type of FU issued
system.switch_cpus.iq.FU_type_0::SimdFloatReduceAdd            0      0.00%     55.44% # Type of FU issued
system.switch_cpus.iq.FU_type_0::SimdFloatReduceCmp            0      0.00%     55.44% # Type of FU issued
system.switch_cpus.iq.FU_type_0::SimdAes            0      0.00%     55.44% # Type of FU issued
system.switch_cpus.iq.FU_type_0::SimdAesMix            0      0.00%     55.44% # Type of FU issued
system.switch_cpus.iq.FU_type_0::SimdSha1Hash            0      0.00%     55.44% # Type of FU issued
system.switch_cpus.iq.FU_type_0::SimdSha1Hash2            0      0.00%     55.44% # Type of FU issued
system.switch_cpus.iq.FU_type_0::SimdSha256Hash            0      0.00%     55.44% # Type of FU issued
system.switch_cpus.iq.FU_type_0::SimdSha256Hash2            0      0.00%     55.44% # Type of FU issued
system.switch_cpus.iq.FU_type_0::SimdShaSigma2            0      0.00%     55.44% # Type of FU issued
system.switch_cpus.iq.FU_type_0::SimdShaSigma3            0      0.00%     55.44% # Type of FU issued
system.switch_cpus.iq.FU_type_0::SimdPredAlu            0      0.00%     55.44% # Type of FU issued
system.switch_cpus.iq.FU_type_0::MemRead       759261      3.28%     58.73% # Type of FU issued
system.switch_cpus.iq.FU_type_0::MemWrite        94658      0.41%     59.13% # Type of FU issued
system.switch_cpus.iq.FU_type_0::FloatMemRead      7177267     31.04%     90.17% # Type of FU issued
system.switch_cpus.iq.FU_type_0::FloatMemWrite      2272411      9.83%    100.00% # Type of FU issued
system.switch_cpus.iq.FU_type_0::IprAccess            0      0.00%    100.00% # Type of FU issued
system.switch_cpus.iq.FU_type_0::InstPrefetch            0      0.00%    100.00% # Type of FU issued
system.switch_cpus.iq.FU_type_0::total       23123972                       # Type of FU issued
system.switch_cpus.iq.fp_alu_accesses        22505460                       # Number of floating point alu accesses
system.switch_cpus.iq.fp_inst_queue_reads     44071169                       # Number of floating instruction queue reads
system.switch_cpus.iq.fp_inst_queue_wakeup_accesses     21442476                       # Number of floating instruction queue wakeup accesses
system.switch_cpus.iq.fp_inst_queue_writes     21670930                       # Number of floating instruction queue writes
system.switch_cpus.iq.fu_busy_cnt             1039138                       # FU busy when requested
system.switch_cpus.iq.fu_busy_rate           0.044938                       # FU busy rate (busy events/executed inst)
system.switch_cpus.iq.fu_full::No_OpClass            0      0.00%      0.00% # attempts to use FU when none available
system.switch_cpus.iq.fu_full::IntAlu             418      0.04%      0.04% # attempts to use FU when none available
system.switch_cpus.iq.fu_full::IntMult              0      0.00%      0.04% # attempts to use FU when none available
system.switch_cpus.iq.fu_full::IntDiv               0      0.00%      0.04% # attempts to use FU when none available
system.switch_cpus.iq.fu_full::FloatAdd             0      0.00%      0.04% # attempts to use FU when none available
system.switch_cpus.iq.fu_full::FloatCmp             0      0.00%      0.04% # attempts to use FU when none available
system.switch_cpus.iq.fu_full::FloatCvt             0      0.00%      0.04% # attempts to use FU when none available
system.switch_cpus.iq.fu_full::FloatMult            0      0.00%      0.04% # attempts to use FU when none available
system.switch_cpus.iq.fu_full::FloatMultAcc            0      0.00%      0.04% # attempts to use FU when none available
system.switch_cpus.iq.fu_full::FloatDiv             0      0.00%      0.04% # attempts to use FU when none available
system.switch_cpus.iq.fu_full::FloatMisc            0      0.00%      0.04% # attempts to use FU when none available
system.switch_cpus.iq.fu_full::FloatSqrt            0      0.00%      0.04% # attempts to use FU when none available
system.switch_cpus.iq.fu_full::SimdAdd              0      0.00%      0.04% # attempts to use FU when none available
system.switch_cpus.iq.fu_full::SimdAddAcc            0      0.00%      0.04% # attempts to use FU when none available
system.switch_cpus.iq.fu_full::SimdAlu              0      0.00%      0.04% # attempts to use FU when none available
system.switch_cpus.iq.fu_full::SimdCmp              0      0.00%      0.04% # attempts to use FU when none available
system.switch_cpus.iq.fu_full::SimdCvt              0      0.00%      0.04% # attempts to use FU when none available
system.switch_cpus.iq.fu_full::SimdMisc             0      0.00%      0.04% # attempts to use FU when none available
system.switch_cpus.iq.fu_full::SimdMult             0      0.00%      0.04% # attempts to use FU when none available
system.switch_cpus.iq.fu_full::SimdMultAcc            0      0.00%      0.04% # attempts to use FU when none available
system.switch_cpus.iq.fu_full::SimdShift            0      0.00%      0.04% # attempts to use FU when none available
system.switch_cpus.iq.fu_full::SimdShiftAcc            0      0.00%      0.04% # attempts to use FU when none available
system.switch_cpus.iq.fu_full::SimdDiv              0      0.00%      0.04% # attempts to use FU when none available
system.switch_cpus.iq.fu_full::SimdSqrt             0      0.00%      0.04% # attempts to use FU when none available
system.switch_cpus.iq.fu_full::SimdFloatAdd       123179     11.85%     11.89% # attempts to use FU when none available
system.switch_cpus.iq.fu_full::SimdFloatAlu            0      0.00%     11.89% # attempts to use FU when none available
system.switch_cpus.iq.fu_full::SimdFloatCmp            0      0.00%     11.89% # attempts to use FU when none available
system.switch_cpus.iq.fu_full::SimdFloatCvt            0      0.00%     11.89% # attempts to use FU when none available
system.switch_cpus.iq.fu_full::SimdFloatDiv            0      0.00%     11.89% # attempts to use FU when none available
system.switch_cpus.iq.fu_full::SimdFloatMisc            0      0.00%     11.89% # attempts to use FU when none available
system.switch_cpus.iq.fu_full::SimdFloatMult       266250     25.62%     37.52% # attempts to use FU when none available
system.switch_cpus.iq.fu_full::SimdFloatMultAcc            0      0.00%     37.52% # attempts to use FU when none available
system.switch_cpus.iq.fu_full::SimdFloatSqrt            0      0.00%     37.52% # attempts to use FU when none available
system.switch_cpus.iq.fu_full::SimdReduceAdd            0      0.00%     37.52% # attempts to use FU when none available
system.switch_cpus.iq.fu_full::SimdReduceAlu            0      0.00%     37.52% # attempts to use FU when none available
system.switch_cpus.iq.fu_full::SimdReduceCmp            0      0.00%     37.52% # attempts to use FU when none available
system.switch_cpus.iq.fu_full::SimdFloatReduceAdd            0      0.00%     37.52% # attempts to use FU when none available
system.switch_cpus.iq.fu_full::SimdFloatReduceCmp            0      0.00%     37.52% # attempts to use FU when none available
system.switch_cpus.iq.fu_full::SimdAes              0      0.00%     37.52% # attempts to use FU when none available
system.switch_cpus.iq.fu_full::SimdAesMix            0      0.00%     37.52% # attempts to use FU when none available
system.switch_cpus.iq.fu_full::SimdSha1Hash            0      0.00%     37.52% # attempts to use FU when none available
system.switch_cpus.iq.fu_full::SimdSha1Hash2            0      0.00%     37.52% # attempts to use FU when none available
system.switch_cpus.iq.fu_full::SimdSha256Hash            0      0.00%     37.52% # attempts to use FU when none available
system.switch_cpus.iq.fu_full::SimdSha256Hash2            0      0.00%     37.52% # attempts to use FU when none available
system.switch_cpus.iq.fu_full::SimdShaSigma2            0      0.00%     37.52% # attempts to use FU when none available
system.switch_cpus.iq.fu_full::SimdShaSigma3            0      0.00%     37.52% # attempts to use FU when none available
system.switch_cpus.iq.fu_full::SimdPredAlu            0      0.00%     37.52% # attempts to use FU when none available
system.switch_cpus.iq.fu_full::MemRead          86781      8.35%     45.87% # attempts to use FU when none available
system.switch_cpus.iq.fu_full::MemWrite         11600      1.12%     46.98% # attempts to use FU when none available
system.switch_cpus.iq.fu_full::FloatMemRead       496645     47.79%     94.78% # attempts to use FU when none available
system.switch_cpus.iq.fu_full::FloatMemWrite        54265      5.22%    100.00% # attempts to use FU when none available
system.switch_cpus.iq.fu_full::IprAccess            0      0.00%    100.00% # attempts to use FU when none available
system.switch_cpus.iq.fu_full::InstPrefetch            0      0.00%    100.00% # attempts to use FU when none available
system.switch_cpus.iq.int_alu_accesses        1616499                       # Number of integer alu accesses
system.switch_cpus.iq.int_inst_queue_reads     16186960                       # Number of integer instruction queue reads
system.switch_cpus.iq.int_inst_queue_wakeup_accesses      1475946                       # Number of integer instruction queue wakeup accesses
system.switch_cpus.iq.int_inst_queue_writes      1936293                       # Number of integer instruction queue writes
system.switch_cpus.iq.iqInstsAdded           23038338                       # Number of instructions added to the IQ (excludes non-spec)
system.switch_cpus.iq.iqInstsIssued          23123972                       # Number of instructions issued
system.switch_cpus.iq.iqNonSpecInstsAdded         3845                       # Number of non-speculative instructions added to the IQ
system.switch_cpus.iq.iqSquashedInstsExamined       564800                       # Number of squashed instructions iterated over during squash; mainly for profiling
system.switch_cpus.iq.iqSquashedInstsIssued          667                       # Number of squashed instructions issued
system.switch_cpus.iq.iqSquashedNonSpecRemoved         3525                       # Number of squashed non-spec instructions that were removed
system.switch_cpus.iq.iqSquashedOperandsExamined       278680                       # Number of squashed operands that are examined and possibly removed from graph
system.switch_cpus.iq.issued_per_cycle::samples     12970386                       # Number of insts issued each cycle
system.switch_cpus.iq.issued_per_cycle::mean     1.782828                       # Number of insts issued each cycle
system.switch_cpus.iq.issued_per_cycle::stdev     2.536474                       # Number of insts issued each cycle
system.switch_cpus.iq.issued_per_cycle::underflows            0      0.00%      0.00% # Number of insts issued each cycle
system.switch_cpus.iq.issued_per_cycle::0      7584584     58.48%     58.48% # Number of insts issued each cycle
system.switch_cpus.iq.issued_per_cycle::1       690792      5.33%     63.80% # Number of insts issued each cycle
system.switch_cpus.iq.issued_per_cycle::2       709543      5.47%     69.27% # Number of insts issued each cycle
system.switch_cpus.iq.issued_per_cycle::3       630740      4.86%     74.14% # Number of insts issued each cycle
system.switch_cpus.iq.issued_per_cycle::4       891486      6.87%     81.01% # Number of insts issued each cycle
system.switch_cpus.iq.issued_per_cycle::5       708709      5.46%     86.47% # Number of insts issued each cycle
system.switch_cpus.iq.issued_per_cycle::6       777259      5.99%     92.47% # Number of insts issued each cycle
system.switch_cpus.iq.issued_per_cycle::7       469353      3.62%     96.08% # Number of insts issued each cycle
system.switch_cpus.iq.issued_per_cycle::8       507920      3.92%    100.00% # Number of insts issued each cycle
system.switch_cpus.iq.issued_per_cycle::overflows            0      0.00%    100.00% # Number of insts issued each cycle
system.switch_cpus.iq.issued_per_cycle::min_value            0                       # Number of insts issued each cycle
system.switch_cpus.iq.issued_per_cycle::max_value            8                       # Number of insts issued each cycle
system.switch_cpus.iq.issued_per_cycle::total     12970386                       # Number of insts issued each cycle
system.switch_cpus.iq.rate                   1.777928                       # Inst issue rate
system.switch_cpus.iq.vec_alu_accesses              0                       # Number of vector alu accesses
system.switch_cpus.iq.vec_inst_queue_reads            0                       # Number of vector instruction queue reads
system.switch_cpus.iq.vec_inst_queue_wakeup_accesses            0                       # Number of vector instruction queue wakeup accesses
system.switch_cpus.iq.vec_inst_queue_writes            0                       # Number of vector instruction queue writes
system.switch_cpus.itb.rdAccesses                   0                       # TLB accesses on read requests
system.switch_cpus.itb.rdMisses                     0                       # TLB misses on read requests
system.switch_cpus.itb.wrAccesses             1083951                       # TLB accesses on write requests
system.switch_cpus.itb.wrMisses                    10                       # TLB misses on write requests
system.switch_cpus.memDep0.conflictingLoads        22767                       # Number of conflicting loads.
system.switch_cpus.memDep0.conflictingStores        94857                       # Number of conflicting stores.
system.switch_cpus.memDep0.insertedLoads      7789837                       # Number of loads inserted to the mem dependence unit.
system.switch_cpus.memDep0.insertedStores      2418782                       # Number of stores inserted to the mem dependence unit.
system.switch_cpus.misc_regfile_reads        10609292                       # number of misc regfile reads
system.switch_cpus.misc_regfile_writes              1                       # number of misc regfile writes
system.switch_cpus.numCycles                 13006133                       # number of cpu cycles simulated
system.switch_cpus.numWorkItemsCompleted            0                       # number of work items this cpu completed
system.switch_cpus.numWorkItemsStarted              0                       # number of work items this cpu started
system.switch_cpus.rename.BlockCycles         3022827                       # Number of cycles rename is blocking
system.switch_cpus.rename.CommittedMaps      20390922                       # Number of HB maps that are committed
system.switch_cpus.rename.IQFullEvents         167297                       # Number of times rename has blocked due to IQ full
system.switch_cpus.rename.IdleCycles          1022667                       # Number of cycles rename is idle
system.switch_cpus.rename.LQFullEvents        2127817                       # Number of times rename has blocked due to LQ full
system.switch_cpus.rename.ROBFullEvents         35400                       # Number of times rename has blocked due to ROB full
system.switch_cpus.rename.RenameLookups      67934588                       # Number of register rename lookups that rename has made
system.switch_cpus.rename.RenamedInsts       23063483                       # Number of instructions processed by rename
system.switch_cpus.rename.RenamedOperands     20905057                       # Number of destination operands rename has renamed
system.switch_cpus.rename.RunCycles           2803802                       # Number of cycles rename is running
system.switch_cpus.rename.SQFullEvents        3761001                       # Number of times rename has blocked due to SQ full
system.switch_cpus.rename.SquashCycles           6067                       # Number of cycles rename is squashing
system.switch_cpus.rename.UnblockCycles       6114681                       # Number of cycles rename is unblocking
system.switch_cpus.rename.UndoneMaps           514079                       # Number of HB maps that are undone due to squashing
system.switch_cpus.rename.fp_rename_lookups     36039261                       # Number of floating rename lookups
system.switch_cpus.rename.int_rename_lookups     21166670                       # Number of integer rename lookups
system.switch_cpus.rename.serializeStallCycles            0                       # count of cycles rename stalled for serializing inst
system.switch_cpus.rename.serializingInsts            0                       # count of serializing insts renamed
system.switch_cpus.rename.skidInsts           3846574                       # count of insts added to the skid buffer
system.switch_cpus.rename.tempSerializingInsts            0                       # count of temporary serializing insts renamed
system.switch_cpus.rob.rob_reads             34240156                       # The number of ROB reads
system.switch_cpus.rob.rob_writes            45953758                       # The number of ROB writes
system.switch_cpus.timesIdled                     363                       # Number of times that the entire CPU went into an idle state and unscheduled itself
system.tol2bus.snoop_filter.hit_multi_requests            0                       # Number of requests hitting in the snoop filter with multiple (>1) holders of the requested data.
system.tol2bus.snoop_filter.hit_multi_snoops            0                       # Number of snoops hitting in the snoop filter with multiple (>1) holders of the requested data.
system.tol2bus.snoop_filter.hit_single_requests       110722                       # Number of requests hitting in the snoop filter with a single holder of the requested data.
system.tol2bus.snoop_filter.hit_single_snoops         1530                       # Number of snoops hitting in the snoop filter with a single holder of the requested data.
system.tol2bus.snoop_filter.tot_requests       222750                       # Total number of requests made to the snoop filter.
system.tol2bus.snoop_filter.tot_snoops           1530                       # Total number of snoops made to the snoop filter.
system.membus.pwrStateResidencyTicks::UNDEFINED 560740530527000                       # Cumulative time (in ticks) in various power states
system.membus.trans_dist::ReadResp              78916                       # Transaction distribution
system.membus.trans_dist::WritebackDirty        29235                       # Transaction distribution
system.membus.trans_dist::CleanEvict            62593                       # Transaction distribution
system.membus.trans_dist::ReadExReq             17323                       # Transaction distribution
system.membus.trans_dist::ReadExResp            17323                       # Transaction distribution
system.membus.trans_dist::ReadSharedReq         78916                       # Transaction distribution
system.membus.pkt_count_system.l2.mem_side::system.mem_ctrls.port       284306                       # Packet count per connected master and slave (bytes)
system.membus.pkt_count_system.l2.mem_side::total       284306                       # Packet count per connected master and slave (bytes)
system.membus.pkt_count::total                 284306                       # Packet count per connected master and slave (bytes)
system.membus.pkt_size_system.l2.mem_side::system.mem_ctrls.port      8030336                       # Cumulative packet size per connected master and slave (bytes)
system.membus.pkt_size_system.l2.mem_side::total      8030336                       # Cumulative packet size per connected master and slave (bytes)
system.membus.pkt_size::total                 8030336                       # Cumulative packet size per connected master and slave (bytes)
system.membus.snoops                                0                       # Total snoops (count)
system.membus.snoopTraffic                          0                       # Total snoop traffic (bytes)
system.membus.snoop_fanout::samples             96239                       # Request fanout histogram
system.membus.snoop_fanout::mean                    0                       # Request fanout histogram
system.membus.snoop_fanout::stdev                   0                       # Request fanout histogram
system.membus.snoop_fanout::underflows              0      0.00%      0.00% # Request fanout histogram
system.membus.snoop_fanout::0                   96239    100.00%    100.00% # Request fanout histogram
system.membus.snoop_fanout::1                       0      0.00%    100.00% # Request fanout histogram
system.membus.snoop_fanout::overflows               0      0.00%    100.00% # Request fanout histogram
system.membus.snoop_fanout::min_value               0                       # Request fanout histogram
system.membus.snoop_fanout::max_value               0                       # Request fanout histogram
system.membus.snoop_fanout::total               96239                       # Request fanout histogram
system.membus.reqLayer2.occupancy           319541262                       # Layer occupancy (ticks)
system.membus.reqLayer2.utilization               4.9                       # Layer utilization (%)
system.membus.respLayer1.occupancy          515290079                       # Layer occupancy (ticks)
system.membus.respLayer1.utilization              7.9                       # Layer utilization (%)
system.switch_cpus.pwrStateResidencyTicks::OFF   6503077000                       # Cumulative time (in ticks) in various power states
system.switch_cpus.dtb.walker.pwrStateResidencyTicks::UNDEFINED 560740530527000                       # Cumulative time (in ticks) in various power states
system.switch_cpus.itb.walker.pwrStateResidencyTicks::UNDEFINED 560740530527000                       # Cumulative time (in ticks) in various power states
system.tol2bus.pwrStateResidencyTicks::UNDEFINED 560740530527000                       # Cumulative time (in ticks) in various power states
system.tol2bus.trans_dist::ReadResp             81122                       # Transaction distribution
system.tol2bus.trans_dist::WritebackDirty        65052                       # Transaction distribution
system.tol2bus.trans_dist::WritebackClean          118                       # Transaction distribution
system.tol2bus.trans_dist::CleanEvict          138357                       # Transaction distribution
system.tol2bus.trans_dist::HardPFReq            56154                       # Transaction distribution
system.tol2bus.trans_dist::ReadExReq            30906                       # Transaction distribution
system.tol2bus.trans_dist::ReadExResp           30906                       # Transaction distribution
system.tol2bus.trans_dist::ReadCleanReq           400                       # Transaction distribution
system.tol2bus.trans_dist::ReadSharedReq        80722                       # Transaction distribution
system.tol2bus.pkt_count_system.cpu.icache.mem_side::system.l2.cpu_side          918                       # Packet count per connected master and slave (bytes)
system.tol2bus.pkt_count_system.cpu.dcache.mem_side::system.l2.cpu_side       333860                       # Packet count per connected master and slave (bytes)
system.tol2bus.pkt_count::total                334778                       # Packet count per connected master and slave (bytes)
system.tol2bus.pkt_size_system.cpu.icache.mem_side::system.l2.cpu_side        33152                       # Cumulative packet size per connected master and slave (bytes)
system.tol2bus.pkt_size_system.cpu.dcache.mem_side::system.l2.cpu_side      9436480                       # Cumulative packet size per connected master and slave (bytes)
system.tol2bus.pkt_size::total                9469632                       # Cumulative packet size per connected master and slave (bytes)
system.tol2bus.snoops                          148959                       # Total snoops (count)
system.tol2bus.snoopTraffic                   1871040                       # Total snoop traffic (bytes)
system.tol2bus.snoop_fanout::samples           260987                       # Request fanout histogram
system.tol2bus.snoop_fanout::mean            0.005862                       # Request fanout histogram
system.tol2bus.snoop_fanout::stdev           0.076341                       # Request fanout histogram
system.tol2bus.snoop_fanout::underflows             0      0.00%      0.00% # Request fanout histogram
system.tol2bus.snoop_fanout::0                 259457     99.41%     99.41% # Request fanout histogram
system.tol2bus.snoop_fanout::1                   1530      0.59%    100.00% # Request fanout histogram
system.tol2bus.snoop_fanout::2                      0      0.00%    100.00% # Request fanout histogram
system.tol2bus.snoop_fanout::3                      0      0.00%    100.00% # Request fanout histogram
system.tol2bus.snoop_fanout::4                      0      0.00%    100.00% # Request fanout histogram
system.tol2bus.snoop_fanout::overflows              0      0.00%    100.00% # Request fanout histogram
system.tol2bus.snoop_fanout::min_value              0                       # Request fanout histogram
system.tol2bus.snoop_fanout::max_value              1                       # Request fanout histogram
system.tol2bus.snoop_fanout::total             260987                       # Request fanout histogram
system.tol2bus.reqLayer0.occupancy          147307500                       # Layer occupancy (ticks)
system.tol2bus.reqLayer0.utilization              2.3                       # Layer utilization (%)
system.tol2bus.respLayer1.occupancy         167437999                       # Layer occupancy (ticks)
system.tol2bus.respLayer1.utilization             2.6                       # Layer utilization (%)
system.tol2bus.respLayer0.occupancy            597000                       # Layer occupancy (ticks)
system.tol2bus.respLayer0.utilization             0.0                       # Layer utilization (%)
system.voltage_domain.voltage                       1                       # Voltage in Volts
system.clk_domain.clock                          1000                       # Clock period in ticks
system.l2.pwrStateResidencyTicks::UNDEFINED 560740530527000                       # Cumulative time (in ticks) in various power states
system.l2.demand_hits::.switch_cpus.inst           33                       # number of demand (read+write) hits
system.l2.demand_hits::.switch_cpus.data        47428                       # number of demand (read+write) hits
system.l2.demand_hits::total                    47461                       # number of demand (read+write) hits
system.l2.overall_hits::.switch_cpus.inst           33                       # number of overall hits
system.l2.overall_hits::.switch_cpus.data        47428                       # number of overall hits
system.l2.overall_hits::total                   47461                       # number of overall hits
system.l2.demand_misses::.cpu.inst                  2                       # number of demand (read+write) misses
system.l2.demand_misses::.cpu.data                  3                       # number of demand (read+write) misses
system.l2.demand_misses::.switch_cpus.inst          365                       # number of demand (read+write) misses
system.l2.demand_misses::.switch_cpus.data        64197                       # number of demand (read+write) misses
system.l2.demand_misses::total                  64567                       # number of demand (read+write) misses
system.l2.overall_misses::.cpu.inst                 2                       # number of overall misses
system.l2.overall_misses::.cpu.data                 3                       # number of overall misses
system.l2.overall_misses::.switch_cpus.inst          365                       # number of overall misses
system.l2.overall_misses::.switch_cpus.data        64197                       # number of overall misses
system.l2.overall_misses::total                 64567                       # number of overall misses
system.l2.demand_miss_latency::.switch_cpus.inst     29127000                       # number of demand (read+write) miss cycles
system.l2.demand_miss_latency::.switch_cpus.data   6603313500                       # number of demand (read+write) miss cycles
system.l2.demand_miss_latency::total       6632440500                       # number of demand (read+write) miss cycles
system.l2.overall_miss_latency::.switch_cpus.inst     29127000                       # number of overall miss cycles
system.l2.overall_miss_latency::.switch_cpus.data   6603313500                       # number of overall miss cycles
system.l2.overall_miss_latency::total      6632440500                       # number of overall miss cycles
system.l2.demand_accesses::.cpu.inst                2                       # number of demand (read+write) accesses
system.l2.demand_accesses::.cpu.data                3                       # number of demand (read+write) accesses
system.l2.demand_accesses::.switch_cpus.inst          398                       # number of demand (read+write) accesses
system.l2.demand_accesses::.switch_cpus.data       111625                       # number of demand (read+write) accesses
system.l2.demand_accesses::total               112028                       # number of demand (read+write) accesses
system.l2.overall_accesses::.cpu.inst               2                       # number of overall (read+write) accesses
system.l2.overall_accesses::.cpu.data               3                       # number of overall (read+write) accesses
system.l2.overall_accesses::.switch_cpus.inst          398                       # number of overall (read+write) accesses
system.l2.overall_accesses::.switch_cpus.data       111625                       # number of overall (read+write) accesses
system.l2.overall_accesses::total              112028                       # number of overall (read+write) accesses
system.l2.demand_miss_rate::.cpu.inst               1                       # miss rate for demand accesses
system.l2.demand_miss_rate::.cpu.data               1                       # miss rate for demand accesses
system.l2.demand_miss_rate::.switch_cpus.inst     0.917085                       # miss rate for demand accesses
system.l2.demand_miss_rate::.switch_cpus.data     0.575113                       # miss rate for demand accesses
system.l2.demand_miss_rate::total            0.576347                       # miss rate for demand accesses
system.l2.overall_miss_rate::.cpu.inst              1                       # miss rate for overall accesses
system.l2.overall_miss_rate::.cpu.data              1                       # miss rate for overall accesses
system.l2.overall_miss_rate::.switch_cpus.inst     0.917085                       # miss rate for overall accesses
system.l2.overall_miss_rate::.switch_cpus.data     0.575113                       # miss rate for overall accesses
system.l2.overall_miss_rate::total           0.576347                       # miss rate for overall accesses
system.l2.demand_avg_miss_latency::.switch_cpus.inst        79800                       # average overall miss latency
system.l2.demand_avg_miss_latency::.switch_cpus.data 102860.157017                       # average overall miss latency
system.l2.demand_avg_miss_latency::total 102721.831586                       # average overall miss latency
system.l2.overall_avg_miss_latency::.switch_cpus.inst        79800                       # average overall miss latency
system.l2.overall_avg_miss_latency::.switch_cpus.data 102860.157017                       # average overall miss latency
system.l2.overall_avg_miss_latency::total 102721.831586                       # average overall miss latency
system.l2.blocked_cycles::no_mshrs                  0                       # number of cycles access was blocked
system.l2.blocked_cycles::no_targets                0                       # number of cycles access was blocked
system.l2.blocked::no_mshrs                         0                       # number of cycles access was blocked
system.l2.blocked::no_targets                       0                       # number of cycles access was blocked
system.l2.avg_blocked_cycles::no_mshrs            nan                       # average number of cycles each access was blocked
system.l2.avg_blocked_cycles::no_targets          nan                       # average number of cycles each access was blocked
system.l2.unused_prefetches                       372                       # number of HardPF blocks evicted w/o reference
system.l2.writebacks::.writebacks               29235                       # number of writebacks
system.l2.writebacks::total                     29235                       # number of writebacks
system.l2.demand_mshr_misses::.switch_cpus.inst          365                       # number of demand (read+write) MSHR misses
system.l2.demand_mshr_misses::.switch_cpus.data        64197                       # number of demand (read+write) MSHR misses
system.l2.demand_mshr_misses::total             64562                       # number of demand (read+write) MSHR misses
system.l2.overall_mshr_misses::.l2.prefetcher        31672                       # number of overall MSHR misses
system.l2.overall_mshr_misses::.switch_cpus.inst          365                       # number of overall MSHR misses
system.l2.overall_mshr_misses::.switch_cpus.data        64197                       # number of overall MSHR misses
system.l2.overall_mshr_misses::total            96234                       # number of overall MSHR misses
system.l2.demand_mshr_miss_latency::.switch_cpus.inst     25477000                       # number of demand (read+write) MSHR miss cycles
system.l2.demand_mshr_miss_latency::.switch_cpus.data   5961343500                       # number of demand (read+write) MSHR miss cycles
system.l2.demand_mshr_miss_latency::total   5986820500                       # number of demand (read+write) MSHR miss cycles
system.l2.overall_mshr_miss_latency::.l2.prefetcher   2772964848                       # number of overall MSHR miss cycles
system.l2.overall_mshr_miss_latency::.switch_cpus.inst     25477000                       # number of overall MSHR miss cycles
system.l2.overall_mshr_miss_latency::.switch_cpus.data   5961343500                       # number of overall MSHR miss cycles
system.l2.overall_mshr_miss_latency::total   8759785348                       # number of overall MSHR miss cycles
system.l2.demand_mshr_miss_rate::.switch_cpus.inst     0.917085                       # mshr miss rate for demand accesses
system.l2.demand_mshr_miss_rate::.switch_cpus.data     0.575113                       # mshr miss rate for demand accesses
system.l2.demand_mshr_miss_rate::total       0.576302                       # mshr miss rate for demand accesses
system.l2.overall_mshr_miss_rate::.l2.prefetcher          inf                       # mshr miss rate for overall accesses
system.l2.overall_mshr_miss_rate::.switch_cpus.inst     0.917085                       # mshr miss rate for overall accesses
system.l2.overall_mshr_miss_rate::.switch_cpus.data     0.575113                       # mshr miss rate for overall accesses
system.l2.overall_mshr_miss_rate::total      0.859017                       # mshr miss rate for overall accesses
system.l2.demand_avg_mshr_miss_latency::.switch_cpus.inst        69800                       # average overall mshr miss latency
system.l2.demand_avg_mshr_miss_latency::.switch_cpus.data 92860.157017                       # average overall mshr miss latency
system.l2.demand_avg_mshr_miss_latency::total 92729.786872                       # average overall mshr miss latency
system.l2.overall_avg_mshr_miss_latency::.l2.prefetcher 87552.565294                       # average overall mshr miss latency
system.l2.overall_avg_mshr_miss_latency::.switch_cpus.inst        69800                       # average overall mshr miss latency
system.l2.overall_avg_mshr_miss_latency::.switch_cpus.data 92860.157017                       # average overall mshr miss latency
system.l2.overall_avg_mshr_miss_latency::total 91025.888439                       # average overall mshr miss latency
system.l2.replacements                          92805                       # number of replacements
system.l2.WritebackDirty_hits::.writebacks        35817                       # number of WritebackDirty hits
system.l2.WritebackDirty_hits::total            35817                       # number of WritebackDirty hits
system.l2.WritebackDirty_accesses::.writebacks        35817                       # number of WritebackDirty accesses(hits+misses)
system.l2.WritebackDirty_accesses::total        35817                       # number of WritebackDirty accesses(hits+misses)
system.l2.WritebackClean_hits::.writebacks          118                       # number of WritebackClean hits
system.l2.WritebackClean_hits::total              118                       # number of WritebackClean hits
system.l2.WritebackClean_accesses::.writebacks          118                       # number of WritebackClean accesses(hits+misses)
system.l2.WritebackClean_accesses::total          118                       # number of WritebackClean accesses(hits+misses)
system.l2.CleanEvict_mshr_misses::.writebacks          553                       # number of CleanEvict MSHR misses
system.l2.CleanEvict_mshr_misses::total           553                       # number of CleanEvict MSHR misses
system.l2.CleanEvict_mshr_miss_rate::.writebacks          inf                       # mshr miss rate for CleanEvict accesses
system.l2.CleanEvict_mshr_miss_rate::total          inf                       # mshr miss rate for CleanEvict accesses
system.l2.HardPFReq_mshr_misses::.l2.prefetcher        31672                       # number of HardPFReq MSHR misses
system.l2.HardPFReq_mshr_misses::total          31672                       # number of HardPFReq MSHR misses
system.l2.HardPFReq_mshr_miss_latency::.l2.prefetcher   2772964848                       # number of HardPFReq MSHR miss cycles
system.l2.HardPFReq_mshr_miss_latency::total   2772964848                       # number of HardPFReq MSHR miss cycles
system.l2.HardPFReq_mshr_miss_rate::.l2.prefetcher          inf                       # mshr miss rate for HardPFReq accesses
system.l2.HardPFReq_mshr_miss_rate::total          inf                       # mshr miss rate for HardPFReq accesses
system.l2.HardPFReq_avg_mshr_miss_latency::.l2.prefetcher 87552.565294                       # average HardPFReq mshr miss latency
system.l2.HardPFReq_avg_mshr_miss_latency::total 87552.565294                       # average HardPFReq mshr miss latency
system.l2.ReadExReq_hits::.switch_cpus.data        13583                       # number of ReadExReq hits
system.l2.ReadExReq_hits::total                 13583                       # number of ReadExReq hits
system.l2.ReadExReq_misses::.cpu.data               2                       # number of ReadExReq misses
system.l2.ReadExReq_misses::.switch_cpus.data        17321                       # number of ReadExReq misses
system.l2.ReadExReq_misses::total               17323                       # number of ReadExReq misses
system.l2.ReadExReq_miss_latency::.switch_cpus.data   1719062500                       # number of ReadExReq miss cycles
system.l2.ReadExReq_miss_latency::total    1719062500                       # number of ReadExReq miss cycles
system.l2.ReadExReq_accesses::.cpu.data             2                       # number of ReadExReq accesses(hits+misses)
system.l2.ReadExReq_accesses::.switch_cpus.data        30904                       # number of ReadExReq accesses(hits+misses)
system.l2.ReadExReq_accesses::total             30906                       # number of ReadExReq accesses(hits+misses)
system.l2.ReadExReq_miss_rate::.cpu.data            1                       # miss rate for ReadExReq accesses
system.l2.ReadExReq_miss_rate::.switch_cpus.data     0.560478                       # miss rate for ReadExReq accesses
system.l2.ReadExReq_miss_rate::total         0.560506                       # miss rate for ReadExReq accesses
system.l2.ReadExReq_avg_miss_latency::.switch_cpus.data 99247.300964                       # average ReadExReq miss latency
system.l2.ReadExReq_avg_miss_latency::total 99235.842522                       # average ReadExReq miss latency
system.l2.ReadExReq_mshr_misses::.switch_cpus.data        17321                       # number of ReadExReq MSHR misses
system.l2.ReadExReq_mshr_misses::total          17321                       # number of ReadExReq MSHR misses
system.l2.ReadExReq_mshr_miss_latency::.switch_cpus.data   1545852500                       # number of ReadExReq MSHR miss cycles
[...]
system.cpu.dtb_walker_cache.pwrStateResidencyTicks::UNDEFINED 560760512765000                       # Cumulative time (in ticks) in various power states
system.cpu.dtb_walker_cache.blocked_cycles::no_mshrs            0                       # number of cycles access was blocked
system.cpu.dtb_walker_cache.blocked_cycles::no_targets            0                       # number of cycles access was blocked
system.cpu.dtb_walker_cache.blocked::no_mshrs            0                       # number of cycles access was blocked
system.cpu.dtb_walker_cache.blocked::no_targets            0                       # number of cycles access was blocked
system.cpu.dtb_walker_cache.avg_blocked_cycles::no_mshrs          nan                       # average number of cycles each access was blocked
system.cpu.dtb_walker_cache.avg_blocked_cycles::no_targets          nan                       # average number of cycles each access was blocked
system.cpu.dtb_walker_cache.replacements            0                       # number of replacements
system.cpu.dtb_walker_cache.tags.pwrStateResidencyTicks::UNDEFINED 560760512765000                       # Cumulative time (in ticks) in various power states
system.cpu.dtb_walker_cache.tags.tagsinuse            0                       # Cycle average of tags in use
system.cpu.dtb_walker_cache.tags.total_refs            0                       # Total number of references to valid blocks.
system.cpu.dtb_walker_cache.tags.sampled_refs            0                       # Sample count of references to valid blocks.
system.cpu.dtb_walker_cache.tags.avg_refs          nan                       # Average number of references to valid blocks.
system.cpu.dtb_walker_cache.tags.warmup_cycle            0                       # Cycle when the warmup percentage was hit.
system.cpu.dtb_walker_cache.tags.tag_accesses            0                       # Number of tag accesses
system.cpu.dtb_walker_cache.tags.data_accesses            0                       # Number of data accesses
system.cpu.dcache.pwrStateResidencyTicks::UNDEFINED 560760512765000                       # Cumulative time (in ticks) in various power states
system.cpu.dcache.demand_hits::.cpu.data            3                       # number of demand (read+write) hits
system.cpu.dcache.demand_hits::.switch_cpus.data     36997306                       # number of demand (read+write) hits
system.cpu.dcache.demand_hits::total         36997309                       # number of demand (read+write) hits
system.cpu.dcache.overall_hits::.cpu.data            3                       # number of overall hits
system.cpu.dcache.overall_hits::.switch_cpus.data     37056309                       # number of overall hits
system.cpu.dcache.overall_hits::total        37056312                       # number of overall hits
system.cpu.dcache.demand_misses::.cpu.data            3                       # number of demand (read+write) misses
system.cpu.dcache.demand_misses::.switch_cpus.data       652195                       # number of demand (read+write) misses
system.cpu.dcache.demand_misses::total         652198                       # number of demand (read+write) misses
system.cpu.dcache.overall_misses::.cpu.data            3                       # number of overall misses
system.cpu.dcache.overall_misses::.switch_cpus.data       666740                       # number of overall misses
system.cpu.dcache.overall_misses::total        666743                       # number of overall misses
system.cpu.dcache.demand_miss_latency::.switch_cpus.data  41220249262                       # number of demand (read+write) miss cycles
system.cpu.dcache.demand_miss_latency::total  41220249262                       # number of demand (read+write) miss cycles
system.cpu.dcache.overall_miss_latency::.switch_cpus.data  41220249262                       # number of overall miss cycles
system.cpu.dcache.overall_miss_latency::total  41220249262                       # number of overall miss cycles
system.cpu.dcache.demand_accesses::.cpu.data            6                       # number of demand (read+write) accesses
system.cpu.dcache.demand_accesses::.switch_cpus.data     37649501                       # number of demand (read+write) accesses
system.cpu.dcache.demand_accesses::total     37649507                       # number of demand (read+write) accesses
system.cpu.dcache.overall_accesses::.cpu.data            6                       # number of overall (read+write) accesses
system.cpu.dcache.overall_accesses::.switch_cpus.data     37723049                       # number of overall (read+write) accesses
system.cpu.dcache.overall_accesses::total     37723055                       # number of overall (read+write) accesses
system.cpu.dcache.demand_miss_rate::.cpu.data     0.500000                       # miss rate for demand accesses
system.cpu.dcache.demand_miss_rate::.switch_cpus.data     0.017323                       # miss rate for demand accesses
system.cpu.dcache.demand_miss_rate::total     0.017323                       # miss rate for demand accesses
system.cpu.dcache.overall_miss_rate::.cpu.data     0.500000                       # miss rate for overall accesses
system.cpu.dcache.overall_miss_rate::.switch_cpus.data     0.017675                       # miss rate for overall accesses
system.cpu.dcache.overall_miss_rate::total     0.017675                       # miss rate for overall accesses
system.cpu.dcache.demand_avg_miss_latency::.switch_cpus.data 63202.338659                       # average overall miss latency
system.cpu.dcache.demand_avg_miss_latency::total 63202.047939                       # average overall miss latency
system.cpu.dcache.overall_avg_miss_latency::.switch_cpus.data 61823.573300                       # average overall miss latency
system.cpu.dcache.overall_avg_miss_latency::total 61823.295126                       # average overall miss latency
system.cpu.dcache.blocked_cycles::no_mshrs      5321365                       # number of cycles access was blocked
system.cpu.dcache.blocked_cycles::no_targets          436                       # number of cycles access was blocked
system.cpu.dcache.blocked::no_mshrs            115283                       # number of cycles access was blocked
system.cpu.dcache.blocked::no_targets               1                       # number of cycles access was blocked
system.cpu.dcache.avg_blocked_cycles::no_mshrs    46.159147                       # average number of cycles each access was blocked
system.cpu.dcache.avg_blocked_cycles::no_targets          436                       # average number of cycles each access was blocked
system.cpu.dcache.writebacks::.writebacks       145397                       # number of writebacks
system.cpu.dcache.writebacks::total            145397                       # number of writebacks
system.cpu.dcache.demand_mshr_hits::.switch_cpus.data       208780                       # number of demand (read+write) MSHR hits
system.cpu.dcache.demand_mshr_hits::total       208780                       # number of demand (read+write) MSHR hits
system.cpu.dcache.overall_mshr_hits::.switch_cpus.data       208780                       # number of overall MSHR hits
system.cpu.dcache.overall_mshr_hits::total       208780                       # number of overall MSHR hits
system.cpu.dcache.demand_mshr_misses::.switch_cpus.data       443415                       # number of demand (read+write) MSHR misses
system.cpu.dcache.demand_mshr_misses::total       443415                       # number of demand (read+write) MSHR misses
system.cpu.dcache.overall_mshr_misses::.switch_cpus.data       448854                       # number of overall MSHR misses
system.cpu.dcache.overall_mshr_misses::total       448854                       # number of overall MSHR misses
system.cpu.dcache.demand_mshr_miss_latency::.switch_cpus.data  29141604262                       # number of demand (read+write) MSHR miss cycles
system.cpu.dcache.demand_mshr_miss_latency::total  29141604262                       # number of demand (read+write) MSHR miss cycles
system.cpu.dcache.overall_mshr_miss_latency::.switch_cpus.data  29624412762                       # number of overall MSHR miss cycles
system.cpu.dcache.overall_mshr_miss_latency::total  29624412762                       # number of overall MSHR miss cycles
system.cpu.dcache.demand_mshr_miss_rate::.switch_cpus.data     0.011777                       # mshr miss rate for demand accesses
system.cpu.dcache.demand_mshr_miss_rate::total     0.011777                       # mshr miss rate for demand accesses
system.cpu.dcache.overall_mshr_miss_rate::.switch_cpus.data     0.011899                       # mshr miss rate for overall accesses
system.cpu.dcache.overall_mshr_miss_rate::total     0.011899                       # mshr miss rate for overall accesses
system.cpu.dcache.demand_avg_mshr_miss_latency::.switch_cpus.data 65720.835475                       # average overall mshr miss latency
system.cpu.dcache.demand_avg_mshr_miss_latency::total 65720.835475                       # average overall mshr miss latency
system.cpu.dcache.overall_avg_mshr_miss_latency::.switch_cpus.data 66000.108637                       # average overall mshr miss latency
system.cpu.dcache.overall_avg_mshr_miss_latency::total 66000.108637                       # average overall mshr miss latency
system.cpu.dcache.replacements                 447831                       # number of replacements
system.cpu.dcache.ReadReq_hits::.cpu.data            1                       # number of ReadReq hits
system.cpu.dcache.ReadReq_hits::.switch_cpus.data     28142446                       # number of ReadReq hits
system.cpu.dcache.ReadReq_hits::total        28142447                       # number of ReadReq hits
system.cpu.dcache.ReadReq_misses::.cpu.data            1                       # number of ReadReq misses
system.cpu.dcache.ReadReq_misses::.switch_cpus.data       524338                       # number of ReadReq misses
system.cpu.dcache.ReadReq_misses::total        524339                       # number of ReadReq misses
system.cpu.dcache.ReadReq_miss_latency::.switch_cpus.data  33090842500                       # number of ReadReq miss cycles
system.cpu.dcache.ReadReq_miss_latency::total  33090842500                       # number of ReadReq miss cycles
system.cpu.dcache.ReadReq_accesses::.cpu.data            2                       # number of ReadReq accesses(hits+misses)
system.cpu.dcache.ReadReq_accesses::.switch_cpus.data     28666784                       # number of ReadReq accesses(hits+misses)
system.cpu.dcache.ReadReq_accesses::total     28666786                       # number of ReadReq accesses(hits+misses)
system.cpu.dcache.ReadReq_miss_rate::.cpu.data     0.500000                       # miss rate for ReadReq accesses
system.cpu.dcache.ReadReq_miss_rate::.switch_cpus.data     0.018291                       # miss rate for ReadReq accesses
system.cpu.dcache.ReadReq_miss_rate::total     0.018291                       # miss rate for ReadReq accesses
system.cpu.dcache.ReadReq_avg_miss_latency::.switch_cpus.data 63109.754586                       # average ReadReq miss latency
system.cpu.dcache.ReadReq_avg_miss_latency::total 63109.634225                       # average ReadReq miss latency
system.cpu.dcache.ReadReq_mshr_hits::.switch_cpus.data       208672                       # number of ReadReq MSHR hits
system.cpu.dcache.ReadReq_mshr_hits::total       208672                       # number of ReadReq MSHR hits
system.cpu.dcache.ReadReq_mshr_misses::.switch_cpus.data       315666                       # number of ReadReq MSHR misses
system.cpu.dcache.ReadReq_mshr_misses::total       315666                       # number of ReadReq MSHR misses
system.cpu.dcache.ReadReq_mshr_miss_latency::.switch_cpus.data  21142186000                       # number of ReadReq MSHR miss cycles
system.cpu.dcache.ReadReq_mshr_miss_latency::total  21142186000                       # number of ReadReq MSHR miss cycles
system.cpu.dcache.ReadReq_mshr_miss_rate::.switch_cpus.data     0.011012                       # mshr miss rate for ReadReq accesses
system.cpu.dcache.ReadReq_mshr_miss_rate::total     0.011012                       # mshr miss rate for ReadReq accesses
system.cpu.dcache.ReadReq_avg_mshr_miss_latency::.switch_cpus.data 66976.443456                       # average ReadReq mshr miss latency
system.cpu.dcache.ReadReq_avg_mshr_miss_latency::total 66976.443456                       # average ReadReq mshr miss latency
system.cpu.dcache.WriteReq_hits::.cpu.data            2                       # number of WriteReq hits
system.cpu.dcache.WriteReq_hits::.switch_cpus.data      8854860                       # number of WriteReq hits
system.cpu.dcache.WriteReq_hits::total        8854862                       # number of WriteReq hits
system.cpu.dcache.WriteReq_misses::.cpu.data            2                       # number of WriteReq misses
system.cpu.dcache.WriteReq_misses::.switch_cpus.data       127857                       # number of WriteReq misses
system.cpu.dcache.WriteReq_misses::total       127859                       # number of WriteReq misses
system.cpu.dcache.WriteReq_miss_latency::.switch_cpus.data   8129406762                       # number of WriteReq miss cycles
system.cpu.dcache.WriteReq_miss_latency::total   8129406762                       # number of WriteReq miss cycles
system.cpu.dcache.WriteReq_accesses::.cpu.data            4                       # number of WriteReq accesses(hits+misses)
system.cpu.dcache.WriteReq_accesses::.switch_cpus.data      8982717                       # number of WriteReq accesses(hits+misses)
system.cpu.dcache.WriteReq_accesses::total      8982721                       # number of WriteReq accesses(hits+misses)
system.cpu.dcache.WriteReq_miss_rate::.cpu.data     0.500000                       # miss rate for WriteReq accesses
system.cpu.dcache.WriteReq_miss_rate::.switch_cpus.data     0.014234                       # miss rate for WriteReq accesses
system.cpu.dcache.WriteReq_miss_rate::total     0.014234                       # miss rate for WriteReq accesses
system.cpu.dcache.WriteReq_avg_miss_latency::.switch_cpus.data 63582.023370                       # average WriteReq miss latency
system.cpu.dcache.WriteReq_avg_miss_latency::total 63581.028805                       # average WriteReq miss latency
system.cpu.dcache.WriteReq_mshr_hits::.switch_cpus.data          108                       # number of WriteReq MSHR hits
system.cpu.dcache.WriteReq_mshr_hits::total          108                       # number of WriteReq MSHR hits
system.cpu.dcache.WriteReq_mshr_misses::.switch_cpus.data       127749                       # number of WriteReq MSHR misses
system.cpu.dcache.WriteReq_mshr_misses::total       127749                       # number of WriteReq MSHR misses
system.cpu.dcache.WriteReq_mshr_miss_latency::.switch_cpus.data   7999418262                       # number of WriteReq MSHR miss cycles
system.cpu.dcache.WriteReq_mshr_miss_latency::total   7999418262                       # number of WriteReq MSHR miss cycles
system.cpu.dcache.WriteReq_mshr_miss_rate::.switch_cpus.data     0.014222                       # mshr miss rate for WriteReq accesses
system.cpu.dcache.WriteReq_mshr_miss_rate::total     0.014222                       # mshr miss rate for WriteReq accesses
system.cpu.dcache.WriteReq_avg_mshr_miss_latency::.switch_cpus.data 62618.245638                       # average WriteReq mshr miss latency
system.cpu.dcache.WriteReq_avg_mshr_miss_latency::total 62618.245638                       # average WriteReq mshr miss latency
system.cpu.dcache.SoftPFReq_hits::.switch_cpus.data        59003                       # number of SoftPFReq hits
system.cpu.dcache.SoftPFReq_hits::total         59003                       # number of SoftPFReq hits
system.cpu.dcache.SoftPFReq_misses::.switch_cpus.data        14545                       # number of SoftPFReq misses
system.cpu.dcache.SoftPFReq_misses::total        14545                       # number of SoftPFReq misses
system.cpu.dcache.SoftPFReq_accesses::.switch_cpus.data        73548                       # number of SoftPFReq accesses(hits+misses)
system.cpu.dcache.SoftPFReq_accesses::total        73548                       # number of SoftPFReq accesses(hits+misses)
system.cpu.dcache.SoftPFReq_miss_rate::.switch_cpus.data     0.197762                       # miss rate for SoftPFReq accesses
system.cpu.dcache.SoftPFReq_miss_rate::total     0.197762                       # miss rate for SoftPFReq accesses
system.cpu.dcache.SoftPFReq_mshr_misses::.switch_cpus.data         5439                       # number of SoftPFReq MSHR misses
system.cpu.dcache.SoftPFReq_mshr_misses::total         5439                       # number of SoftPFReq MSHR misses
system.cpu.dcache.SoftPFReq_mshr_miss_latency::.switch_cpus.data    482808500                       # number of SoftPFReq MSHR miss cycles
system.cpu.dcache.SoftPFReq_mshr_miss_latency::total    482808500                       # number of SoftPFReq MSHR miss cycles
system.cpu.dcache.SoftPFReq_mshr_miss_rate::.switch_cpus.data     0.073952                       # mshr miss rate for SoftPFReq accesses
system.cpu.dcache.SoftPFReq_mshr_miss_rate::total     0.073952                       # mshr miss rate for SoftPFReq accesses
system.cpu.dcache.SoftPFReq_avg_mshr_miss_latency::.switch_cpus.data 88767.880125                       # average SoftPFReq mshr miss latency
system.cpu.dcache.SoftPFReq_avg_mshr_miss_latency::total 88767.880125                       # average SoftPFReq mshr miss latency
system.cpu.dcache.tags.pwrStateResidencyTicks::UNDEFINED 560760512765000                       # Cumulative time (in ticks) in various power states
system.cpu.dcache.tags.tagsinuse             0.048264                       # Cycle average of tags in use
system.cpu.dcache.tags.total_refs            37505169                       # Total number of references to valid blocks.
system.cpu.dcache.tags.sampled_refs            448855                       # Sample count of references to valid blocks.
system.cpu.dcache.tags.avg_refs             83.557427                       # Average number of references to valid blocks.
system.cpu.dcache.tags.warmup_cycle      560734027452500                       # Cycle when the warmup percentage was hit.
system.cpu.dcache.tags.occ_blocks::.cpu.data     0.000001                       # Average occupied blocks per requestor
system.cpu.dcache.tags.occ_blocks::.switch_cpus.data     0.048263                       # Average occupied blocks per requestor
system.cpu.dcache.tags.occ_percent::.cpu.data     0.000000                       # Average percentage of cache occupancy
system.cpu.dcache.tags.occ_percent::.switch_cpus.data     0.000047                       # Average percentage of cache occupancy
system.cpu.dcache.tags.occ_percent::total     0.000047                       # Average percentage of cache occupancy
system.cpu.dcache.tags.occ_task_id_blocks::1024         1024                       # Occupied blocks per task id
system.cpu.dcache.tags.age_task_id_blocks_1024::0          129                       # Occupied blocks per task id
system.cpu.dcache.tags.age_task_id_blocks_1024::1          564                       # Occupied blocks per task id
system.cpu.dcache.tags.age_task_id_blocks_1024::2          330                       # Occupied blocks per task id
system.cpu.dcache.tags.age_task_id_blocks_1024::3            1                       # Occupied blocks per task id
system.cpu.dcache.tags.occ_task_id_percent::1024            1                       # Percentage of cache occupancy per task id
system.cpu.dcache.tags.tag_accesses          75894965                       # Number of tag accesses
system.cpu.dcache.tags.data_accesses         75894965                       # Number of data accesses

---------- End Simulation Statistics   ----------
