
---------- Begin Simulation Statistics ----------
final_tick                               136219565231000                       # Number of ticks from beginning of simulation (restored from checkpoints and never reset)
host_inst_rate                                  61244                       # Simulator instruction rate (inst/s)
host_mem_usage                                 829724                       # Number of bytes of host memory used
host_op_rate                                   124998                       # Simulator op (including micro ops) rate (op/s)
host_seconds                                   163.28                       # Real time elapsed on the host
host_tick_rate                               31717496                       # Simulator tick rate (ticks/s)
sim_freq                                 1000000000000                       # Frequency of simulated ticks
sim_insts                                    10000010                       # Number of instructions simulated
sim_ops                                      20409943                       # Number of ops (including micro ops) simulated
sim_seconds                                  0.005179                       # Number of seconds simulated
sim_ticks                                  5178909750                       # Number of ticks simulated
system.cpu.Branches                                 2                       # Number of branches fetched
system.cpu.committedInsts                           8                       # Number of instructions committed
system.cpu.committedOps                            16                       # Number of ops (including micro ops) committed
system.cpu.dtb.rdAccesses                           3                       # TLB accesses on read requests
system.cpu.dtb.rdMisses                             0                       # TLB misses on read requests
system.cpu.dtb.wrAccesses                           0                       # TLB accesses on write requests
system.cpu.dtb.wrMisses                             0                       # TLB misses on write requests
system.cpu.idle_fraction                            0                       # Percentage of idle cycles
system.cpu.itb.rdAccesses                           0                       # TLB accesses on read requests
system.cpu.itb.rdMisses                             0                       # TLB misses on read requests
system.cpu.itb.wrAccesses                          11                       # TLB accesses on write requests
system.cpu.itb.wrMisses                             0                       # TLB misses on write requests
system.cpu.not_idle_fraction                        1                       # Percentage of non-idle cycles
system.cpu.numCycles                               19                       # number of cpu cycles simulated
system.cpu.numWorkItemsCompleted                    0                       # number of work items this cpu completed
system.cpu.numWorkItemsStarted                      0                       # number of work items this cpu started
system.cpu.num_busy_cycles                         19                       # Number of busy cycles
system.cpu.num_cc_register_reads                   10                       # number of times the CC registers were read
system.cpu.num_cc_register_writes                   4                       # number of times the CC registers were written
system.cpu.num_conditional_control_insts            2                       # number of instructions that are conditional controls
system.cpu.num_fp_alu_accesses                      0                       # Number of float alu accesses
system.cpu.num_fp_insts                             0                       # number of float instructions
system.cpu.num_fp_register_reads                    0                       # number of times the floating registers were read
system.cpu.num_fp_register_writes                   0                       # number of times the floating registers were written
system.cpu.num_func_calls                           0                       # number of times a function call or return occured
system.cpu.num_idle_cycles                          0                       # Number of idle cycles
system.cpu.num_int_alu_accesses                    16                       # Number of integer alu accesses
system.cpu.num_int_insts                           16                       # number of integer instructions
system.cpu.num_int_register_reads                  33                       # number of times the integer registers were read
system.cpu.num_int_register_writes                 14                       # number of times the integer registers were written
system.cpu.num_load_insts                           3                       # Number of load instructions
system.cpu.num_mem_refs                             3                       # number of memory refs
system.cpu.num_store_insts                          0                       # Number of store instructions
system.cpu.num_vec_alu_accesses                     0                       # Number of vector alu accesses
system.cpu.num_vec_insts                            0                       # number of vector instructions
system.cpu.num_vec_register_reads                   0                       # number of times the vector registers were read
system.cpu.num_vec_register_writes                  0                       # number of times the vector registers were written
system.cpu.op_class::No_OpClass                     0      0.00%      0.00% # Class of executed instruction
system.cpu.op_class::IntAlu                        13     81.25%     81.25% # Class of executed instruction
system.cpu.op_class::IntMult                        0      0.00%     81.25% # Class of executed instruction
system.cpu.op_class::IntDiv                         0      0.00%     81.25% # Class of executed instruction
system.cpu.op_class::FloatAdd                       0      0.00%     81.25% # Class of executed instruction
system.cpu.op_class::FloatCmp                       0      0.00%     81.25% # Class of executed instruction
system.cpu.op_class::FloatCvt                       0      0.00%     81.25% # Class of executed instruction
system.cpu.op_class::FloatMult                      0      0.00%     81.25% # Class of executed instruction
system.cpu.op_class::FloatMultAcc                   0      0.00%     81.25% # Class of executed instruction
system.cpu.op_class::FloatDiv                       0      0.00%     81.25% # Class of executed instruction
system.cpu.op_class::FloatMisc                      0      0.00%     81.25% # Class of executed instruction
system.cpu.op_class::FloatSqrt                      0      0.00%     81.25% # Class of executed instruction
system.cpu.op_class::SimdAdd                        0      0.00%     81.25% # Class of executed instruction
system.cpu.op_class::SimdAddAcc                     0      0.00%     81.25% # Class of executed instruction
system.cpu.op_class::SimdAlu                        0      0.00%     81.25% # Class of executed instruction
system.cpu.op_class::SimdCmp                        0      0.00%     81.25% # Class of executed instruction
system.cpu.op_class::SimdCvt                        0      0.00%     81.25% # Class of executed instruction
system.cpu.op_class::SimdMisc                       0      0.00%     81.25% # Class of executed instruction
system.cpu.op_class::SimdMult                       0      0.00%     81.25% # Class of executed instruction
system.cpu.op_class::SimdMultAcc                    0      0.00%     81.25% # Class of executed instruction
system.cpu.op_class::SimdShift                      0      0.00%     81.25% # Class of executed instruction
system.cpu.op_class::SimdShiftAcc                   0      0.00%     81.25% # Class of executed instruction
system.cpu.op_class::SimdDiv                        0      0.00%     81.25% # Class of executed instruction
system.cpu.op_class::SimdSqrt                       0      0.00%     81.25% # Class of executed instruction
system.cpu.op_class::SimdFloatAdd                   0      0.00%     81.25% # Class of executed instruction
system.cpu.op_class::SimdFloatAlu                   0      0.00%     81.25% # Class of executed instruction
system.cpu.op_class::SimdFloatCmp                   0      0.00%     81.25% # Class of executed instruction
system.cpu.op_class::SimdFloatCvt                   0      0.00%     81.25% # Class of executed instruction
system.cpu.op_class::SimdFloatDiv                   0      0.00%     81.25% # Class of executed instruction
system.cpu.op_class::SimdFloatMisc                  0      0.00%     81.25% # Class of executed instruction
system.cpu.op_class::SimdFloatMult                  0      0.00%     81.25% # Class of executed instruction
system.cpu.op_class::SimdFloatMultAcc               0      0.00%     81.25% # Class of executed instruction
system.cpu.op_class::SimdFloatSqrt                  0      0.00%     81.25% # Class of executed instruction
system.cpu.op_class::SimdReduceAdd                  0      0.00%     81.25% # Class of executed instruction
system.cpu.op_class::SimdReduceAlu                  0      0.00%     81.25% # Class of executed instruction
system.cpu.op_class::SimdReduceCmp                  0      0.00%     81.25% # Class of executed instruction
system.cpu.op_class::SimdFloatReduceAdd             0      0.00%     81.25% # Class of executed instruction
system.cpu.op_class::SimdFloatReduceCmp             0      0.00%     81.25% # Class of executed instruction
system.cpu.op_class::SimdAes                        0      0.00%     81.25% # Class of executed instruction
system.cpu.op_class::SimdAesMix                     0      0.00%     81.25% # Class of executed instruction
system.cpu.op_class::SimdSha1Hash                   0      0.00%     81.25% # Class of executed instruction
system.cpu.op_class::SimdSha1Hash2                  0      0.00%     81.25% # Class of executed instruction
system.cpu.op_class::SimdSha256Hash                 0      0.00%     81.25% # Class of executed instruction
system.cpu.op_class::SimdSha256Hash2                0      0.00%     81.25% # Class of executed instruction
system.cpu.op_class::SimdShaSigma2                  0      0.00%     81.25% # Class of executed instruction
system.cpu.op_class::SimdShaSigma3                  0      0.00%     81.25% # Class of executed instruction
system.cpu.op_class::SimdPredAlu                    0      0.00%     81.25% # Class of executed instruction
system.cpu.op_class::MemRead                        3     18.75%    100.00% # Class of executed instruction
system.cpu.op_class::MemWrite                       0      0.00%    100.00% # Class of executed instruction
system.cpu.op_class::FloatMemRead                   0      0.00%    100.00% # Class of executed instruction
system.cpu.op_class::FloatMemWrite                  0      0.00%    100.00% # Class of executed instruction
system.cpu.op_class::IprAccess                      0      0.00%    100.00% # Class of executed instruction
system.cpu.op_class::InstPrefetch                   0      0.00%    100.00% # Class of executed instruction
system.cpu.op_class::total                         16                       # Class of executed instruction
system.cpu.workload.numSyscalls                     0                       # Number of system calls
system.l2.prefetcher.num_hwpf_issued            49175                       # number of hwpf issued
system.l2.prefetcher.pfBufferHit                    0                       # number of redundant prefetches already in prefetch queue
system.l2.prefetcher.pfIdentified               49175                       # number of prefetch candidates identified
system.l2.prefetcher.pfInCache                      0                       # number of redundant prefetches already in cache/mshr dropped
system.l2.prefetcher.pfRemovedFull                  0                       # number of prefetches dropped due to prefetch queue size
system.l2.prefetcher.pfSpanPage                   105                       # number of prefetches that crossed the page
system.membus.snoop_filter.hit_multi_requests            0                       # Number of requests hitting in the snoop filter with multiple (>1) holders of the requested data.
system.membus.snoop_filter.hit_multi_snoops            0                       # Number of snoops hitting in the snoop filter with multiple (>1) holders of the requested data.
system.membus.snoop_filter.hit_single_requests        94044                       # Number of requests hitting in the snoop filter with a single holder of the requested data.
system.membus.snoop_filter.hit_single_snoops            0                       # Number of snoops hitting in the snoop filter with a single holder of the requested data.
system.membus.snoop_filter.tot_requests        192229                       # Total number of requests made to the snoop filter.
system.membus.snoop_filter.tot_snoops               0                       # Total number of snoops made to the snoop filter.
system.switch_cpus.branchPred.BTBCorrect            0                       # Number of correct BTB predictions (this stat may not work properly.
system.switch_cpus.branchPred.BTBHitPct      0.000000                       # BTB Hit Percentage
system.switch_cpus.branchPred.BTBHits               0                       # Number of BTB hits
system.switch_cpus.branchPred.BTBLookups      2385855                       # Number of BTB lookups
system.switch_cpus.branchPred.RASInCorrect            1                       # Number of incorrect RAS predictions.
system.switch_cpus.branchPred.condIncorrect          211                       # Number of conditional branches incorrect
system.switch_cpus.branchPred.condPredicted      2603652                       # Number of conditional branches predicted
system.switch_cpus.branchPred.indirectHits       410966                       # Number of indirect target hits.
system.switch_cpus.branchPred.indirectLookups      2385855                       # Number of indirect predictor lookups.
system.switch_cpus.branchPred.indirectMisses      1974889                       # Number of indirect misses.
system.switch_cpus.branchPred.lookups         2603822                       # Number of BP lookups
system.switch_cpus.branchPred.usedRAS              96                       # Number of times the RAS was used to get a target.
system.switch_cpus.branchPredindirectMispredicted          144                       # Number of mispredicted indirect branches.
system.switch_cpus.cc_regfile_reads          13013932                       # number of cc regfile reads
system.switch_cpus.cc_regfile_writes          6028201                       # number of cc regfile writes
system.switch_cpus.commit.amos                      0                       # Number of atomic instructions committed
system.switch_cpus.commit.branchMispredicts          215                       # The number of times a branch was mispredicted
system.switch_cpus.commit.branches            2602496                       # Number of branches committed
system.switch_cpus.commit.bw_lim_events       2332925                       # number cycles where commit BW limit reached
system.switch_cpus.commit.commitSquashedInsts         7599                       # The number of squashed insts skipped by commit
system.switch_cpus.commit.committedInsts     10000002                       # Number of instructions committed
system.switch_cpus.commit.committedOps       20409927                       # Number of ops (including micro ops) committed
system.switch_cpus.commit.committed_per_cycle::samples     10352828                       # Number of insts commited each cycle
system.switch_cpus.commit.committed_per_cycle::mean     1.971435                       # Number of insts commited each cycle
system.switch_cpus.commit.committed_per_cycle::stdev     3.355207                       # Number of insts commited each cycle
system.switch_cpus.commit.committed_per_cycle::underflows            0      0.00%      0.00% # Number of insts commited each cycle
system.switch_cpus.commit.committed_per_cycle::0      7410295     71.58%     71.58% # Number of insts commited each cycle
system.switch_cpus.commit.committed_per_cycle::1       253993      2.45%     74.03% # Number of insts commited each cycle
system.switch_cpus.commit.committed_per_cycle::2        11695      0.11%     74.14% # Number of insts commited each cycle
system.switch_cpus.commit.committed_per_cycle::3       196017      1.89%     76.04% # Number of insts commited each cycle
system.switch_cpus.commit.committed_per_cycle::4        16252      0.16%     76.19% # Number of insts commited each cycle
system.switch_cpus.commit.committed_per_cycle::5        35493      0.34%     76.54% # Number of insts commited each cycle
system.switch_cpus.commit.committed_per_cycle::6        34486      0.33%     76.87% # Number of insts commited each cycle
system.switch_cpus.commit.committed_per_cycle::7        61672      0.60%     77.47% # Number of insts commited each cycle
system.switch_cpus.commit.committed_per_cycle::8      2332925     22.53%    100.00% # Number of insts commited each cycle
system.switch_cpus.commit.committed_per_cycle::overflows            0      0.00%    100.00% # Number of insts commited each cycle
system.switch_cpus.commit.committed_per_cycle::min_value            0                       # Number of insts commited each cycle
system.switch_cpus.commit.committed_per_cycle::max_value            8                       # Number of insts commited each cycle
system.switch_cpus.commit.committed_per_cycle::total     10352828                       # Number of insts commited each cycle
system.switch_cpus.commit.fp_insts                  0                       # Number of committed floating point instructions.
system.switch_cpus.commit.function_calls           10                       # Number of function calls committed.
system.switch_cpus.commit.int_insts          20409909                       # Number of committed integer instructions.
system.switch_cpus.commit.loads               4520346                       # Number of loads committed
system.switch_cpus.commit.membars                   0                       # Number of memory barriers committed
system.switch_cpus.commit.op_class_0::No_OpClass           18      0.00%      0.00% # Class of committed instruction
system.switch_cpus.commit.op_class_0::IntAlu     15752357     77.18%     77.18% # Class of committed instruction
system.switch_cpus.commit.op_class_0::IntMult            0      0.00%     77.18% # Class of committed instruction
system.switch_cpus.commit.op_class_0::IntDiv            0      0.00%     77.18% # Class of committed instruction
system.switch_cpus.commit.op_class_0::FloatAdd            0      0.00%     77.18% # Class of committed instruction
system.switch_cpus.commit.op_class_0::FloatCmp            0      0.00%     77.18% # Class of committed instruction
system.switch_cpus.commit.op_class_0::FloatCvt            0      0.00%     77.18% # Class of committed instruction
system.switch_cpus.commit.op_class_0::FloatMult            0      0.00%     77.18% # Class of committed instruction
system.switch_cpus.commit.op_class_0::FloatMultAcc            0      0.00%     77.18% # Class of committed instruction
system.switch_cpus.commit.op_class_0::FloatDiv            0      0.00%     77.18% # Class of committed instruction
system.switch_cpus.commit.op_class_0::FloatMisc            0      0.00%     77.18% # Class of committed instruction
system.switch_cpus.commit.op_class_0::FloatSqrt            0      0.00%     77.18% # Class of committed instruction
system.switch_cpus.commit.op_class_0::SimdAdd            0      0.00%     77.18% # Class of committed instruction
system.switch_cpus.commit.op_class_0::SimdAddAcc            0      0.00%     77.18% # Class of committed instruction
system.switch_cpus.commit.op_class_0::SimdAlu            0      0.00%     77.18% # Class of committed instruction
system.switch_cpus.commit.op_class_0::SimdCmp            0      0.00%     77.18% # Class of committed instruction
system.switch_cpus.commit.op_class_0::SimdCvt            0      0.00%     77.18% # Class of committed instruction
system.switch_cpus.commit.op_class_0::SimdMisc            0      0.00%     77.18% # Class of committed instruction
system.switch_cpus.commit.op_class_0::SimdMult            0      0.00%     77.18% # Class of committed instruction
system.switch_cpus.commit.op_class_0::SimdMultAcc            0      0.00%     77.18% # Class of committed instruction
system.switch_cpus.commit.op_class_0::SimdShift            0      0.00%     77.18% # Class of committed instruction
system.switch_cpus.commit.op_class_0::SimdShiftAcc            0      0.00%     77.18% # Class of committed instruction
system.switch_cpus.commit.op_class_0::SimdDiv            0      0.00%     77.18% # Class of committed instruction
system.switch_cpus.commit.op_class_0::SimdSqrt            0      0.00%     77.18% # Class of committed instruction
system.switch_cpus.commit.op_class_0::SimdFloatAdd            0      0.00%     77.18% # Class of committed instruction
system.switch_cpus.commit.op_class_0::SimdFloatAlu            0      0.00%     77.18% # Class of committed instruction
system.switch_cpus.commit.op_class_0::SimdFloatCmp            0      0.00%     77.18% # Class of committed instruction
system.switch_cpus.commit.op_class_0::SimdFloatCvt            0      0.00%     77.18% # Class of committed instruction
system.switch_cpus.commit.op_class_0::SimdFloatDiv            0      0.00%     77.18% # Class of committed instruction
system.switch_cpus.commit.op_class_0::SimdFloatMisc            0      0.00%     77.18% # Class of committed instruction
system.switch_cpus.commit.op_class_0::SimdFloatMult            0      0.00%     77.18% # Class of committed instruction
system.switch_cpus.commit.op_class_0::SimdFloatMultAcc            0      0.00%     77.18% # Class of committed instruction
system.switch_cpus.commit.op_class_0::SimdFloatSqrt            0      0.00%     77.18% # Class of committed instruction
system.switch_cpus.commit.op_class_0::SimdReduceAdd            0      0.00%     77.18% # Class of committed instruction
system.switch_cpus.commit.op_class_0::SimdReduceAlu            0      0.00%     77.18% # Class of committed instruction
system.switch_cpus.commit.op_class_0::SimdReduceCmp            0      0.00%     77.18% # Class of committed instruction
system.switch_cpus.commit.op_class_0::SimdFloatReduceAdd            0      0.00%     77.18% # Class of committed instruction
system.switch_cpus.commit.op_class_0::SimdFloatReduceCmp            0      0.00%     77.18% # Class of committed instruction
system.switch_cpus.commit.op_class_0::SimdAes            0      0.00%     77.18% # Class of committed instruction
system.switch_cpus.commit.op_class_0::SimdAesMix            0      0.00%     77.18% # Class of committed instruction
system.switch_cpus.commit.op_class_0::SimdSha1Hash            0      0.00%     77.18% # Class of committed instruction
system.switch_cpus.commit.op_class_0::SimdSha1Hash2            0      0.00%     77.18% # Class of committed instruction
system.switch_cpus.commit.op_class_0::SimdSha256Hash            0      0.00%     77.18% # Class of committed instruction
system.switch_cpus.commit.op_class_0::SimdSha256Hash2            0      0.00%     77.18% # Class of committed instruction
system.switch_cpus.commit.op_class_0::SimdShaSigma2            0      0.00%     77.18% # Class of committed instruction
system.switch_cpus.commit.op_class_0::SimdShaSigma3            0      0.00%     77.18% # Class of committed instruction
system.switch_cpus.commit.op_class_0::SimdPredAlu            0      0.00%     77.18% # Class of committed instruction
system.switch_cpus.commit.op_class_0::MemRead      4520346     22.15%     99.33% # Class of committed instruction
system.switch_cpus.commit.op_class_0::MemWrite       137206      0.67%    100.00% # Class of committed instruction
system.switch_cpus.commit.op_class_0::FloatMemRead            0      0.00%    100.00% # Class of committed instruction
system.switch_cpus.commit.op_class_0::FloatMemWrite            0      0.00%    100.00% # Class of committed instruction
system.switch_cpus.commit.op_class_0::IprAccess            0      0.00%    100.00% # Class of committed instruction
system.switch_cpus.commit.op_class_0::InstPrefetch            0      0.00%    100.00% # Class of committed instruction
system.switch_cpus.commit.op_class_0::total     20409927                       # Class of committed instruction
system.switch_cpus.commit.refs                4657552                       # Number of memory references committed
system.switch_cpus.commit.swp_count                 0                       # Number of s/w prefetches committed
system.switch_cpus.commit.vec_insts                 0                       # Number of committed Vector instructions.
system.switch_cpus.committedInsts            10000002                       # Number of Instructions Simulated
system.switch_cpus.committedOps              20409927                       # Number of Ops (including micro ops) Simulated
system.switch_cpus.cpi                       1.035780                       # CPI: Cycles Per Instruction
system.switch_cpus.cpi_total                 1.035780                       # CPI: Total CPI of All Threads
system.switch_cpus.decode.BlockedCycles       6756877                       # Number of cycles decode is blocked
system.switch_cpus.decode.DecodedInsts       20420112                       # Number of instructions handled by decode
system.switch_cpus.decode.IdleCycles           634267                       # Number of cycles decode is idle
system.switch_cpus.decode.RunCycles           2762712                       # Number of cycles decode is running
system.switch_cpus.decode.SquashCycles            253                       # Number of cycles decode is squashing
system.switch_cpus.decode.UnblockCycles        199968                       # Number of cycles decode is unblocking
system.switch_cpus.dtb.rdAccesses             4521792                       # TLB accesses on read requests
system.switch_cpus.dtb.rdMisses                  1702                       # TLB misses on read requests
system.switch_cpus.dtb.wrAccesses              137432                       # TLB accesses on write requests
system.switch_cpus.dtb.wrMisses                     8                       # TLB misses on write requests
system.switch_cpus.fetch.Branches             2603822                       # Number of branches that fetch encountered
system.switch_cpus.fetch.CacheLines            822822                       # Number of cache lines fetched
system.switch_cpus.fetch.Cycles               9529348                       # Number of cycles fetch has run and was not squashing or blocked
system.switch_cpus.fetch.IcacheSquashes            64                       # Number of outstanding Icache misses that were squashed
system.switch_cpus.fetch.Insts               10008139                       # Number of instructions fetch has processed
system.switch_cpus.fetch.MiscStallCycles            4                       # Number of cycles fetch has spent waiting on interrupts, or bad addresses, or out of MSHRs
system.switch_cpus.fetch.PendingTrapStallCycles          315                       # Number of stall cycles due to pending traps
system.switch_cpus.fetch.SquashCycles             506                       # Number of cycles fetch has spent squashing
system.switch_cpus.fetch.branchRate          0.251388                       # Number of branch fetches per cycle
system.switch_cpus.fetch.icacheStallCycles       824177                       # Number of cycles fetch is stalled on an Icache miss
system.switch_cpus.fetch.predictedBranches       411062                       # Number of branches that fetch has predicted taken
system.switch_cpus.fetch.rate                0.966242                       # Number of inst fetches per cycle
system.switch_cpus.fetch.rateDist::samples     10354097                       # Number of instructions fetched each cycle (Total)
system.switch_cpus.fetch.rateDist::mean      1.972474                       # Number of instructions fetched each cycle (Total)
system.switch_cpus.fetch.rateDist::stdev     3.284053                       # Number of instructions fetched each cycle (Total)
system.switch_cpus.fetch.rateDist::underflows            0      0.00%      0.00% # Number of instructions fetched each cycle (Total)
system.switch_cpus.fetch.rateDist::0          7179238     69.34%     69.34% # Number of instructions fetched each cycle (Total)
system.switch_cpus.fetch.rateDist::1           405115      3.91%     73.25% # Number of instructions fetched each cycle (Total)
system.switch_cpus.fetch.rateDist::2             1918      0.02%     73.27% # Number of instructions fetched each cycle (Total)
system.switch_cpus.fetch.rateDist::3           135744      1.31%     74.58% # Number of instructions fetched each cycle (Total)
system.switch_cpus.fetch.rateDist::4           278115      2.69%     77.27% # Number of instructions fetched each cycle (Total)
system.switch_cpus.fetch.rateDist::5            43012      0.42%     77.68% # Number of instructions fetched each cycle (Total)
system.switch_cpus.fetch.rateDist::6             7354      0.07%     77.75% # Number of instructions fetched each cycle (Total)
system.switch_cpus.fetch.rateDist::7           193445      1.87%     79.62% # Number of instructions fetched each cycle (Total)
system.switch_cpus.fetch.rateDist::8          2110156     20.38%    100.00% # Number of instructions fetched each cycle (Total)
system.switch_cpus.fetch.rateDist::overflows            0      0.00%    100.00% # Number of instructions fetched each cycle (Total)
system.switch_cpus.fetch.rateDist::min_value            0                       # Number of instructions fetched each cycle (Total)
system.switch_cpus.fetch.rateDist::max_value            8                       # Number of instructions fetched each cycle (Total)
system.switch_cpus.fetch.rateDist::total     10354097                       # Number of instructions fetched each cycle (Total)
system.switch_cpus.fp_regfile_writes               56                       # number of floating regfile writes
system.switch_cpus.idleCycles                    3702                       # Total number of cycles that the CPU has spent unscheduled due to idling
system.switch_cpus.iew.branchMispredicts          298                       # Number of branch mispredicts detected at execute
system.switch_cpus.iew.exec_branches          2602798                       # Number of branches executed
system.switch_cpus.iew.exec_nop                     0                       # number of nop insts executed
system.switch_cpus.iew.exec_rate             1.970992                       # Inst execution rate
system.switch_cpus.iew.exec_refs              4659263                       # number of memory reference insts executed
system.switch_cpus.iew.exec_stores             137432                       # Number of stores executed
system.switch_cpus.iew.exec_swp                     0                       # number of swp insts executed
system.switch_cpus.iew.iewBlockCycles            2787                       # Number of cycles IEW is blocking
system.switch_cpus.iew.iewDispLoadInsts       4522191                       # Number of dispatched load instructions
system.switch_cpus.iew.iewDispNonSpecInsts            0                       # Number of dispatched non-speculative instructions
system.switch_cpus.iew.iewDispSquashedInsts            0                       # Number of squashed instructions skipped by dispatch
system.switch_cpus.iew.iewDispStoreInsts       137675                       # Number of dispatched store instructions
system.switch_cpus.iew.iewDispatchedInsts     20417600                       # Number of instructions dispatched to IQ
system.switch_cpus.iew.iewExecLoadInsts       4521831                       # Number of load instructions executed
system.switch_cpus.iew.iewExecSquashedInsts          382                       # Number of squashed instructions skipped in execute
system.switch_cpus.iew.iewExecutedInsts      20415137                       # Number of executed instructions
system.switch_cpus.iew.iewIQFullEvents             40                       # Number of times the IQ has become full, causing a stall
system.switch_cpus.iew.iewIdleCycles                0                       # Number of cycles IEW is idle
system.switch_cpus.iew.iewLSQFullEvents        252133                       # Number of times the LSQ has become full, causing a stall
system.switch_cpus.iew.iewSquashCycles            253                       # Number of cycles IEW is squashing
system.switch_cpus.iew.iewUnblockCycles        252175                       # Number of cycles IEW is unblocking
system.switch_cpus.iew.lsq.thread0.blockedLoads            0                       # Number of blocked loads due to partial load-store forwarding
system.switch_cpus.iew.lsq.thread0.cacheBlocked            7                       # Number of times an access to memory failed due to the cache being blocked
system.switch_cpus.iew.lsq.thread0.forwLoads          168                       # Number of loads that had data forwarded from stores
system.switch_cpus.iew.lsq.thread0.ignoredResponses            3                       # Number of memory responses ignored because the instruction is squashed
system.switch_cpus.iew.lsq.thread0.invAddrLoads            0                       # Number of loads ignored due to an invalid address
system.switch_cpus.iew.lsq.thread0.invAddrSwpfs            0                       # Number of software prefetches ignored due to an invalid address
system.switch_cpus.iew.lsq.thread0.memOrderViolation           42                       # Number of memory ordering violations
system.switch_cpus.iew.lsq.thread0.rescheduledLoads            4                       # Number of loads that were rescheduled
system.switch_cpus.iew.lsq.thread0.squashedLoads         1820                       # Number of loads squashed
system.switch_cpus.iew.lsq.thread0.squashedStores          468                       # Number of stores squashed
system.switch_cpus.iew.memOrderViolationEvents           42                       # Number of memory order violations
system.switch_cpus.iew.predictedNotTakenIncorrect          270                       # Number of branches that were predicted not taken incorrectly
system.switch_cpus.iew.predictedTakenIncorrect           28                       # Number of branches that were predicted taken incorrectly
system.switch_cpus.iew.wb_consumers          24645372                       # num instructions consuming a value
system.switch_cpus.iew.wb_count              20414659                       # cumulative count of insts written-back
system.switch_cpus.iew.wb_fanout             0.699904                       # average fanout of values written-back
system.switch_cpus.iew.wb_producers          17249391                       # num instructions producing a value
system.switch_cpus.iew.wb_rate               1.970946                       # insts written-back per cycle
system.switch_cpus.iew.wb_sent               20414776                       # cumulative count of insts sent to commit
system.switch_cpus.int_regfile_reads         36033749                       # number of integer regfile reads
system.switch_cpus.int_regfile_writes        17674452                       # number of integer regfile writes
system.switch_cpus.ipc                       0.965456                       # IPC: Instructions Per Cycle
system.switch_cpus.ipc_total                 0.965456                       # IPC: Total IPC of All Threads
system.switch_cpus.iq.FU_type_0::No_OpClass          148      0.00%      0.00% # Type of FU issued
system.switch_cpus.iq.FU_type_0::IntAlu      15755971     77.18%     77.18% # Type of FU issued
system.switch_cpus.iq.FU_type_0::IntMult            0      0.00%     77.18% # Type of FU issued
system.switch_cpus.iq.FU_type_0::IntDiv             0      0.00%     77.18% # Type of FU issued
system.switch_cpus.iq.FU_type_0::FloatAdd            0      0.00%     77.18% # Type of FU issued
system.switch_cpus.iq.FU_type_0::FloatCmp            0      0.00%     77.18% # Type of FU issued
system.switch_cpus.iq.FU_type_0::FloatCvt            0      0.00%     77.18% # Type of FU issued
system.switch_cpus.iq.FU_type_0::FloatMult            0      0.00%     77.18% # Type of FU issued
system.switch_cpus.iq.FU_type_0::FloatMultAcc            0      0.00%     77.18% # Type of FU issued
system.switch_cpus.iq.FU_type_0::FloatDiv            0      0.00%     77.18% # Type of FU issued
system.switch_cpus.iq.FU_type_0::FloatMisc            0      0.00%     77.18% # Type of FU issued
system.switch_cpus.iq.FU_type_0::FloatSqrt            0      0.00%     77.18% # Type of FU issued
system.switch_cpus.iq.FU_type_0::SimdAdd            0      0.00%     77.18% # Type of FU issued
system.switch_cpus.iq.FU_type_0::SimdAddAcc            0      0.00%     77.18% # Type of FU issued
system.switch_cpus.iq.FU_type_0::SimdAlu            0      0.00%     77.18% # Type of FU issued
system.switch_cpus.iq.FU_type_0::SimdCmp            0      0.00%     77.18% # Type of FU issued
system.switch_cpus.iq.FU_type_0::SimdCvt            0      0.00%     77.18% # Type of FU issued
system.switch_cpus.iq.FU_type_0::SimdMisc            0      0.00%     77.18% # Type of FU issued
system.switch_cpus.iq.FU_type_0::SimdMult            0      0.00%     77.18% # Type of FU issued
system.switch_cpus.iq.FU_type_0::SimdMultAcc            0      0.00%     77.18% # Type of FU issued
system.switch_cpus.iq.FU_type_0::SimdShift            0      0.00%     77.18% # Type of FU issued
system.switch_cpus.iq.FU_type_0::SimdShiftAcc            0      0.00%     77.18% # Type of FU issued
system.switch_cpus.iq.FU_type_0::SimdDiv            0      0.00%     77.18% # Type of FU issued
system.switch_cpus.iq.FU_type_0::SimdSqrt            0      0.00%     77.18% # Type of FU issued
system.switch_cpus.iq.FU_type_0::SimdFloatAdd            0      0.00%     77.18% # Type of FU issued
system.switch_cpus.iq.FU_type_0::SimdFloatAlu            0      0.00%     77.18% # Type of FU issued
system.switch_cpus.iq.FU_type_0::SimdFloatCmp            0      0.00%     77.18% # Type of FU issued
system.switch_cpus.iq.FU_type_0::SimdFloatCvt            0      0.00%     77.18% # Type of FU issued
system.switch_cpus.iq.FU_type_0::SimdFloatDiv            0      0.00%     77.18% # Type of FU issued
system.switch_cpus.iq.FU_type_0::SimdFloatMisc            0      0.00%     77.18% # Type of FU issued
system.switch_cpus.iq.FU_type_0::SimdFloatMult            0      0.00%     77.18% # Type of FU issued
system.switch_cpus.iq.FU_type_0::SimdFloatMultAcc            0      0.00%     77.18% # Type of FU issued
system.switch_cpus.iq.FU_type_0::SimdFloatSqrt            0      0.00%     77.18% # Type of FU issued
system.switch_cpus.iq.FU_type_0::SimdReduceAdd            0      0.00%     77.18% # Type of FU issued
system.switch_cpus.iq.FU_type_0::SimdReduceAlu            0      0.00%     77.18% # Type of FU issued
system.switch_cpus.iq.FU_type_0::SimdReduceCmp            0      0.00%     77.18% # Type of FU issued
system.switch_cpus.iq.FU_type_0::SimdFloatReduceAdd            0      0.00%     77.18% # Type of FU issued
system.switch_cpus.iq.FU_type_0::SimdFloatReduceCmp            0      0.00%     77.18% # Type of FU issued
system.switch_cpus.iq.FU_type_0::SimdAes            0      0.00%     77.18% # Type of FU issued
system.switch_cpus.iq.FU_type_0::SimdAesMix            0      0.00%     77.18% # Type of FU issued
system.switch_cpus.iq.FU_type_0::SimdSha1Hash            0      0.00%     77.18% # Type of FU issued
system.switch_cpus.iq.FU_type_0::SimdSha1Hash2            0      0.00%     77.18% # Type of FU issued
system.switch_cpus.iq.FU_type_0::SimdSha256Hash            0      0.00%     77.18% # Type of FU issued
system.switch_cpus.iq.FU_type_0::SimdSha256Hash2            0      0.00%     77.18% # Type of FU issued
system.switch_cpus.iq.FU_type_0::SimdShaSigma2            0      0.00%     77.18% # Type of FU issued
system.switch_cpus.iq.FU_type_0::SimdShaSigma3            0      0.00%     77.18% # Type of FU issued
system.switch_cpus.iq.FU_type_0::SimdPredAlu            0      0.00%     77.18% # Type of FU issued
system.switch_cpus.iq.FU_type_0::MemRead      4521937     22.15%     99.33% # Type of FU issued
system.switch_cpus.iq.FU_type_0::MemWrite       137467      0.67%    100.00% # Type of FU issued
system.switch_cpus.iq.FU_type_0::FloatMemRead            0      0.00%    100.00% # Type of FU issued
system.switch_cpus.iq.FU_type_0::FloatMemWrite            0      0.00%    100.00% # Type of FU issued
system.switch_cpus.iq.FU_type_0::IprAccess            0      0.00%    100.00% # Type of FU issued
system.switch_cpus.iq.FU_type_0::InstPrefetch            0      0.00%    100.00% # Type of FU issued
system.switch_cpus.iq.FU_type_0::total       20415523                       # Type of FU issued
system.switch_cpus.iq.fp_alu_accesses               0                       # Number of floating point alu accesses
system.switch_cpus.iq.fp_inst_queue_reads            0                       # Number of floating instruction queue reads
system.switch_cpus.iq.fp_inst_queue_wakeup_accesses            0                       # Number of floating instruction queue wakeup accesses
system.switch_cpus.iq.fp_inst_queue_writes            0                       # Number of floating instruction queue writes
system.switch_cpus.iq.fu_busy_cnt              366955                       # FU busy when requested
system.switch_cpus.iq.fu_busy_rate           0.017974                       # FU busy rate (busy events/executed inst)
system.switch_cpus.iq.fu_full::No_OpClass            0      0.00%      0.00% # attempts to use FU when none available
system.switch_cpus.iq.fu_full::IntAlu          366904     99.99%     99.99% # attempts to use FU when none available
system.switch_cpus.iq.fu_full::IntMult              0      0.00%     99.99% # attempts to use FU when none available
system.switch_cpus.iq.fu_full::IntDiv               0      0.00%     99.99% # attempts to use FU when none available
system.switch_cpus.iq.fu_full::FloatAdd             0      0.00%     99.99% # attempts to use FU when none available
system.switch_cpus.iq.fu_full::FloatCmp             0      0.00%     99.99% # attempts to use FU when none available
system.switch_cpus.iq.fu_full::FloatCvt             0      0.00%     99.99% # attempts to use FU when none available
system.switch_cpus.iq.fu_full::FloatMult            0      0.00%     99.99% # attempts to use FU when none available
system.switch_cpus.iq.fu_full::FloatMultAcc            0      0.00%     99.99% # attempts to use FU when none available
system.switch_cpus.iq.fu_full::FloatDiv             0      0.00%     99.99% # attempts to use FU when none available
system.switch_cpus.iq.fu_full::FloatMisc            0      0.00%     99.99% # attempts to use FU when none available
system.switch_cpus.iq.fu_full::FloatSqrt            0      0.00%     99.99% # attempts to use FU when none available
system.switch_cpus.iq.fu_full::SimdAdd              0      0.00%     99.99% # attempts to use FU when none available
system.switch_cpus.iq.fu_full::SimdAddAcc            0      0.00%     99.99% # attempts to use FU when none available
system.switch_cpus.iq.fu_full::SimdAlu              0      0.00%     99.99% # attempts to use FU when none available
system.switch_cpus.iq.fu_full::SimdCmp              0      0.00%     99.99% # attempts to use FU when none available
system.switch_cpus.iq.fu_full::SimdCvt              0      0.00%     99.99% # attempts to use FU when none available
system.switch_cpus.iq.fu_full::SimdMisc             0      0.00%     99.99% # attempts to use FU when none available
system.switch_cpus.iq.fu_full::SimdMult             0      0.00%     99.99% # attempts to use FU when none available
system.switch_cpus.iq.fu_full::SimdMultAcc            0      0.00%     99.99% # attempts to use FU when none available
system.switch_cpus.iq.fu_full::SimdShift            0      0.00%     99.99% # attempts to use FU when none available
system.switch_cpus.iq.fu_full::SimdShiftAcc            0      0.00%     99.99% # attempts to use FU when none available
system.switch_cpus.iq.fu_full::SimdDiv              0      0.00%     99.99% # attempts to use FU when none available
system.switch_cpus.iq.fu_full::SimdSqrt             0      0.00%     99.99% # attempts to use FU when none available
system.switch_cpus.iq.fu_full::SimdFloatAdd            0      0.00%     99.99% # attempts to use FU when none available
system.switch_cpus.iq.fu_full::SimdFloatAlu            0      0.00%     99.99% # attempts to use FU when none available
system.switch_cpus.iq.fu_full::SimdFloatCmp            0      0.00%     99.99% # attempts to use FU when none available
system.switch_cpus.iq.fu_full::SimdFloatCvt            0      0.00%     99.99% # attempts to use FU when none available
system.switch_cpus.iq.fu_full::SimdFloatDiv            0      0.00%     99.99% # attempts to use FU when none available
system.switch_cpus.iq.fu_full::SimdFloatMisc            0      0.00%     99.99% # attempts to use FU when none available
system.switch_cpus.iq.fu_full::SimdFloatMult            0      0.00%     99.99% # attempts to use FU when none available
system.switch_cpus.iq.fu_full::SimdFloatMultAcc            0      0.00%     99.99% # attempts to use FU when none available
system.switch_cpus.iq.fu_full::SimdFloatSqrt            0      0.00%     99.99% # attempts to use FU when none available
system.switch_cpus.iq.fu_full::SimdReduceAdd            0      0.00%     99.99% # attempts to use FU when none available
system.switch_cpus.iq.fu_full::SimdReduceAlu            0      0.00%     99.99% # attempts to use FU when none available
system.switch_cpus.iq.fu_full::SimdReduceCmp            0      0.00%     99.99% # attempts to use FU when none available
system.switch_cpus.iq.fu_full::SimdFloatReduceAdd            0      0.00%     99.99% # attempts to use FU when none available
system.switch_cpus.iq.fu_full::SimdFloatReduceCmp            0      0.00%     99.99% # attempts to use FU when none available
system.switch_cpus.iq.fu_full::SimdAes              0      0.00%     99.99% # attempts to use FU when none available
system.switch_cpus.iq.fu_full::SimdAesMix            0      0.00%     99.99% # attempts to use FU when none available
system.switch_cpus.iq.fu_full::SimdSha1Hash            0      0.00%     99.99% # attempts to use FU when none available
system.switch_cpus.iq.fu_full::SimdSha1Hash2            0      0.00%     99.99% # attempts to use FU when none available
system.switch_cpus.iq.fu_full::SimdSha256Hash            0      0.00%     99.99% # attempts to use FU when none available
system.switch_cpus.iq.fu_full::SimdSha256Hash2            0      0.00%     99.99% # attempts to use FU when none available
system.switch_cpus.iq.fu_full::SimdShaSigma2            0      0.00%     99.99% # attempts to use FU when none available
system.switch_cpus.iq.fu_full::SimdShaSigma3            0      0.00%     99.99% # attempts to use FU when none available
system.switch_cpus.iq.fu_full::SimdPredAlu            0      0.00%     99.99% # attempts to use FU when none available
system.switch_cpus.iq.fu_full::MemRead             25      0.01%     99.99% # attempts to use FU when none available
system.switch_cpus.iq.fu_full::MemWrite            26      0.01%    100.00% # attempts to use FU when none available
system.switch_cpus.iq.fu_full::FloatMemRead            0      0.00%    100.00% # attempts to use FU when none available
system.switch_cpus.iq.fu_full::FloatMemWrite            0      0.00%    100.00% # attempts to use FU when none available
system.switch_cpus.iq.fu_full::IprAccess            0      0.00%    100.00% # attempts to use FU when none available
system.switch_cpus.iq.fu_full::InstPrefetch            0      0.00%    100.00% # attempts to use FU when none available
system.switch_cpus.iq.int_alu_accesses       20782330                       # Number of integer alu accesses
system.switch_cpus.iq.int_inst_queue_reads     51552132                       # Number of integer instruction queue reads
system.switch_cpus.iq.int_inst_queue_wakeup_accesses     20414659                       # Number of integer instruction queue wakeup accesses
system.switch_cpus.iq.int_inst_queue_writes     20425197                       # Number of integer instruction queue writes
system.switch_cpus.iq.iqInstsAdded           20417600                       # Number of instructions added to the IQ (excludes non-spec)
system.switch_cpus.iq.iqInstsIssued          20415523                       # Number of instructions issued
system.switch_cpus.iq.iqSquashedInstsExamined         7555                       # Number of squashed instructions iterated over during squash; mainly for profiling
system.switch_cpus.iq.iqSquashedInstsIssued           38                       # Number of squashed instructions issued
system.switch_cpus.iq.iqSquashedOperandsExamined        10484                       # Number of squashed operands that are examined and possibly removed from graph
system.switch_cpus.iq.issued_per_cycle::samples     10354097                       # Number of insts issued each cycle
system.switch_cpus.iq.issued_per_cycle::mean     1.971734                       # Number of insts issued each cycle
system.switch_cpus.iq.issued_per_cycle::stdev     2.667503                       # Number of insts issued each cycle
system.switch_cpus.iq.issued_per_cycle::underflows            0      0.00%      0.00% # Number of insts issued each cycle
system.switch_cpus.iq.issued_per_cycle::0      5868363     56.68%     56.68% # Number of insts issued each cycle
system.switch_cpus.iq.issued_per_cycle::1       601554      5.81%     62.49% # Number of insts issued each cycle
system.switch_cpus.iq.issued_per_cycle::2       381231      3.68%     66.17% # Number of insts issued each cycle
system.switch_cpus.iq.issued_per_cycle::3       462898      4.47%     70.64% # Number of insts issued each cycle
system.switch_cpus.iq.issued_per_cycle::4       555754      5.37%     76.01% # Number of insts issued each cycle
system.switch_cpus.iq.issued_per_cycle::5       756342      7.30%     83.31% # Number of insts issued each cycle
system.switch_cpus.iq.issued_per_cycle::6       865147      8.36%     91.67% # Number of insts issued each cycle
system.switch_cpus.iq.issued_per_cycle::7       435259      4.20%     95.87% # Number of insts issued each cycle
system.switch_cpus.iq.issued_per_cycle::8       427549      4.13%    100.00% # Number of insts issued each cycle
system.switch_cpus.iq.issued_per_cycle::overflows            0      0.00%    100.00% # Number of insts issued each cycle
system.switch_cpus.iq.issued_per_cycle::min_value            0                       # Number of insts issued each cycle
system.switch_cpus.iq.issued_per_cycle::max_value            8                       # Number of insts issued each cycle
system.switch_cpus.iq.issued_per_cycle::total     10354097                       # Number of insts issued each cycle
system.switch_cpus.iq.rate                   1.971029                       # Inst issue rate
system.switch_cpus.iq.vec_alu_accesses              0                       # Number of vector alu accesses
system.switch_cpus.iq.vec_inst_queue_reads            0                       # Number of vector instruction queue reads
system.switch_cpus.iq.vec_inst_queue_wakeup_accesses            0                       # Number of vector instruction queue wakeup accesses
system.switch_cpus.iq.vec_inst_queue_writes            0                       # Number of vector instruction queue writes
system.switch_cpus.itb.rdAccesses                   0                       # TLB accesses on read requests
system.switch_cpus.itb.rdMisses                     0                       # TLB misses on read requests
system.switch_cpus.itb.wrAccesses              822856                       # TLB accesses on write requests
system.switch_cpus.itb.wrMisses                    38                       # TLB misses on write requests
system.switch_cpus.memDep0.conflictingLoads          138                       # Number of conflicting loads.
system.switch_cpus.memDep0.conflictingStores           41                       # Number of conflicting stores.
system.switch_cpus.memDep0.insertedLoads      4522191                       # Number of loads inserted to the mem dependence unit.
system.switch_cpus.memDep0.insertedStores       137675                       # Number of stores inserted to the mem dependence unit.
system.switch_cpus.misc_regfile_reads         9865235                       # number of misc regfile reads
system.switch_cpus.misc_regfile_writes              1                       # number of misc regfile writes
system.switch_cpus.numCycles                 10357799                       # number of cpu cycles simulated
system.switch_cpus.numWorkItemsCompleted            0                       # number of work items this cpu completed
system.switch_cpus.numWorkItemsStarted              0                       # number of work items this cpu started
system.switch_cpus.rename.BlockCycles          258547                       # Number of cycles rename is blocking
system.switch_cpus.rename.CommittedMaps      23697269                       # Number of HB maps that are committed
system.switch_cpus.rename.IQFullEvents          40461                       # Number of times rename has blocked due to IQ full
system.switch_cpus.rename.IdleCycles           746600                       # Number of cycles rename is idle
system.switch_cpus.rename.LQFullEvents        6419407                       # Number of times rename has blocked due to LQ full
system.switch_cpus.rename.ROBFullEvents           851                       # Number of times rename has blocked due to ROB full
system.switch_cpus.rename.RenameLookups      58926255                       # Number of register rename lookups that rename has made
system.switch_cpus.rename.RenamedInsts       20419011                       # Number of instructions processed by rename
system.switch_cpus.rename.RenamedOperands     23707456                       # Number of destination operands rename has renamed
system.switch_cpus.rename.RunCycles           2849213                       # Number of cycles rename is running
system.switch_cpus.rename.SquashCycles            253                       # Number of cycles rename is squashing
system.switch_cpus.rename.UnblockCycles       6499464                       # Number of cycles rename is unblocking
system.switch_cpus.rename.UndoneMaps            10040                       # Number of HB maps that are undone due to squashing
system.switch_cpus.rename.int_rename_lookups     36041752                       # Number of integer rename lookups
system.switch_cpus.rename.serializeStallCycles            0                       # count of cycles rename stalled for serializing inst
system.switch_cpus.rename.serializingInsts            0                       # count of serializing insts renamed
system.switch_cpus.rename.skidInsts           1207453                       # count of insts added to the skid buffer
system.switch_cpus.rename.tempSerializingInsts            0                       # count of temporary serializing insts renamed
system.switch_cpus.rob.rob_reads             28437429                       # The number of ROB reads
system.switch_cpus.rob.rob_writes            40836459                       # The number of ROB writes
system.switch_cpus.timesIdled                      39                       # Number of times that the entire CPU went into an idle state and unscheduled itself
system.tol2bus.snoop_filter.hit_multi_requests            0                       # Number of requests hitting in the snoop filter with multiple (>1) holders of the requested data.
system.tol2bus.snoop_filter.hit_multi_snoops            0                       # Number of snoops hitting in the snoop filter with multiple (>1) holders of the requested data.
system.tol2bus.snoop_filter.hit_single_requests       101848                       # Number of requests hitting in the snoop filter with a single holder of the requested data.
system.tol2bus.snoop_filter.hit_single_snoops           58                       # Number of snoops hitting in the snoop filter with a single holder of the requested data.
system.tol2bus.snoop_filter.tot_requests       204764                       # Total number of requests made to the snoop filter.
system.tol2bus.snoop_filter.tot_snoops             58                       # Total number of snoops made to the snoop filter.
system.membus.pwrStateResidencyTicks::UNDEFINED 136219565231000                       # Cumulative time (in ticks) in various power states
system.membus.trans_dist::ReadResp              98174                       # Transaction distribution
system.membus.trans_dist::WritebackDirty           51                       # Transaction distribution
system.membus.trans_dist::CleanEvict            93993                       # Transaction distribution
system.membus.trans_dist::ReadExReq                11                       # Transaction distribution
system.membus.trans_dist::ReadExResp               11                       # Transaction distribution
system.membus.trans_dist::ReadSharedReq         98174                       # Transaction distribution
system.membus.pkt_count_system.l2.mem_side::system.mem_ctrls.port       290414                       # Packet count per connected master and slave (bytes)
system.membus.pkt_count_system.l2.mem_side::total       290414                       # Packet count per connected master and slave (bytes)
system.membus.pkt_count::total                 290414                       # Packet count per connected master and slave (bytes)
system.membus.pkt_size_system.l2.mem_side::system.mem_ctrls.port      6287104                       # Cumulative packet size per connected master and slave (bytes)
system.membus.pkt_size_system.l2.mem_side::total      6287104                       # Cumulative packet size per connected master and slave (bytes)
system.membus.pkt_size::total                 6287104                       # Cumulative packet size per connected master and slave (bytes)
system.membus.snoops                                0                       # Total snoops (count)
system.membus.snoopTraffic                          0                       # Total snoop traffic (bytes)
system.membus.snoop_fanout::samples             98185                       # Request fanout histogram
system.membus.snoop_fanout::mean                    0                       # Request fanout histogram
system.membus.snoop_fanout::stdev                   0                       # Request fanout histogram
system.membus.snoop_fanout::underflows              0      0.00%      0.00% # Request fanout histogram
system.membus.snoop_fanout::0                   98185    100.00%    100.00% # Request fanout histogram
system.membus.snoop_fanout::1                       0      0.00%    100.00% # Request fanout histogram
system.membus.snoop_fanout::overflows               0      0.00%    100.00% # Request fanout histogram
system.membus.snoop_fanout::min_value               0                       # Request fanout histogram
system.membus.snoop_fanout::max_value               0                       # Request fanout histogram
system.membus.snoop_fanout::total               98185                       # Request fanout histogram
system.membus.reqLayer2.occupancy           206577987                       # Layer occupancy (ticks)
system.membus.reqLayer2.utilization               4.0                       # Layer utilization (%)
system.membus.respLayer1.occupancy          506380502                       # Layer occupancy (ticks)
system.membus.respLayer1.utilization              9.8                       # Layer utilization (%)
system.switch_cpus.pwrStateResidencyTicks::OFF   5178909750                       # Cumulative time (in ticks) in various power states
system.switch_cpus.dtb.walker.pwrStateResidencyTicks::UNDEFINED 136219565231000                       # Cumulative time (in ticks) in various power states
system.switch_cpus.itb.walker.pwrStateResidencyTicks::UNDEFINED 136219565231000                       # Cumulative time (in ticks) in various power states
system.tol2bus.pwrStateResidencyTicks::UNDEFINED 136219565231000                       # Cumulative time (in ticks) in various power states
system.tol2bus.trans_dist::ReadResp            102905                       # Transaction distribution
system.tol2bus.trans_dist::WritebackDirty          108                       # Transaction distribution
system.tol2bus.trans_dist::CleanEvict          195829                       # Transaction distribution
system.tol2bus.trans_dist::HardPFReq            85807                       # Transaction distribution
system.tol2bus.trans_dist::ReadExReq               11                       # Transaction distribution
system.tol2bus.trans_dist::ReadExResp              11                       # Transaction distribution
system.tol2bus.trans_dist::ReadCleanReq            44                       # Transaction distribution
system.tol2bus.trans_dist::ReadSharedReq       102861                       # Transaction distribution
system.tol2bus.pkt_count_system.cpu.icache.mem_side::system.l2.cpu_side           88                       # Packet count per connected master and slave (bytes)
system.tol2bus.pkt_count_system.cpu.dcache.mem_side::system.l2.cpu_side       307592                       # Packet count per connected master and slave (bytes)
system.tol2bus.pkt_count::total                307680                       # Packet count per connected master and slave (bytes)
system.tol2bus.pkt_size_system.cpu.icache.mem_side::system.l2.cpu_side         2816                       # Cumulative packet size per connected master and slave (bytes)
system.tol2bus.pkt_size_system.cpu.dcache.mem_side::system.l2.cpu_side      6587456                       # Cumulative packet size per connected master and slave (bytes)
system.tol2bus.pkt_size::total                6590272                       # Cumulative packet size per connected master and slave (bytes)
system.tol2bus.snoops                          179896                       # Total snoops (count)
system.tol2bus.snoopTraffic                      3264                       # Total snoop traffic (bytes)
system.tol2bus.snoop_fanout::samples           282812                       # Request fanout histogram
system.tol2bus.snoop_fanout::mean            0.000205                       # Request fanout histogram
system.tol2bus.snoop_fanout::stdev           0.014319                       # Request fanout histogram
system.tol2bus.snoop_fanout::underflows             0      0.00%      0.00% # Request fanout histogram
system.tol2bus.snoop_fanout::0                 282754     99.98%     99.98% # Request fanout histogram
system.tol2bus.snoop_fanout::1                     58      0.02%    100.00% # Request fanout histogram
system.tol2bus.snoop_fanout::2                      0      0.00%    100.00% # Request fanout histogram
system.tol2bus.snoop_fanout::3                      0      0.00%    100.00% # Request fanout histogram
system.tol2bus.snoop_fanout::4                      0      0.00%    100.00% # Request fanout histogram
system.tol2bus.snoop_fanout::overflows              0      0.00%    100.00% # Request fanout histogram
system.tol2bus.snoop_fanout::min_value              0                       # Request fanout histogram
system.tol2bus.snoop_fanout::max_value              1                       # Request fanout histogram
system.tol2bus.snoop_fanout::total             282812                       # Request fanout histogram
system.tol2bus.reqLayer0.occupancy          102436000                       # Layer occupancy (ticks)
system.tol2bus.reqLayer0.utilization              2.0                       # Layer utilization (%)
system.tol2bus.respLayer1.occupancy         154303500                       # Layer occupancy (ticks)
system.tol2bus.respLayer1.utilization             3.0                       # Layer utilization (%)
system.tol2bus.respLayer0.occupancy             61500                       # Layer occupancy (ticks)
system.tol2bus.respLayer0.utilization             0.0                       # Layer utilization (%)
system.voltage_domain.voltage                       1                       # Voltage in Volts
system.clk_domain.clock                          1000                       # Clock period in ticks
system.l2.pwrStateResidencyTicks::UNDEFINED 136219565231000                       # Cumulative time (in ticks) in various power states
system.l2.demand_hits::.switch_cpus.data        53726                       # number of demand (read+write) hits
system.l2.demand_hits::total                    53726                       # number of demand (read+write) hits
system.l2.overall_hits::.switch_cpus.data        53726                       # number of overall hits
system.l2.overall_hits::total                   53726                       # number of overall hits
system.l2.demand_misses::.cpu.inst                  3                       # number of demand (read+write) misses
system.l2.demand_misses::.cpu.data                  3                       # number of demand (read+write) misses
system.l2.demand_misses::.switch_cpus.inst           41                       # number of demand (read+write) misses
system.l2.demand_misses::.switch_cpus.data        49143                       # number of demand (read+write) misses
system.l2.demand_misses::total                  49190                       # number of demand (read+write) misses
system.l2.overall_misses::.cpu.inst                 3                       # number of overall misses
system.l2.overall_misses::.cpu.data                 3                       # number of overall misses
system.l2.overall_misses::.switch_cpus.inst           41                       # number of overall misses
system.l2.overall_misses::.switch_cpus.data        49143                       # number of overall misses
system.l2.overall_misses::total                 49190                       # number of overall misses
system.l2.demand_miss_latency::.switch_cpus.inst      3145000                       # number of demand (read+write) miss cycles
system.l2.demand_miss_latency::.switch_cpus.data   3905580000                       # number of demand (read+write) miss cycles
system.l2.demand_miss_latency::total       3908725000                       # number of demand (read+write) miss cycles
system.l2.overall_miss_latency::.switch_cpus.inst      3145000                       # number of overall miss cycles
system.l2.overall_miss_latency::.switch_cpus.data   3905580000                       # number of overall miss cycles
system.l2.overall_miss_latency::total      3908725000                       # number of overall miss cycles
system.l2.demand_accesses::.cpu.inst                3                       # number of demand (read+write) accesses
system.l2.demand_accesses::.cpu.data                3                       # number of demand (read+write) accesses
system.l2.demand_accesses::.switch_cpus.inst           41                       # number of demand (read+write) accesses
system.l2.demand_accesses::.switch_cpus.data       102869                       # number of demand (read+write) accesses
system.l2.demand_accesses::total               102916                       # number of demand (read+write) accesses
system.l2.overall_accesses::.cpu.inst               3                       # number of overall (read+write) accesses
system.l2.overall_accesses::.cpu.data               3                       # number of overall (read+write) accesses
system.l2.overall_accesses::.switch_cpus.inst           41                       # number of overall (read+write) accesses
system.l2.overall_accesses::.switch_cpus.data       102869                       # number of overall (read+write) accesses
system.l2.overall_accesses::total              102916                       # number of overall (read+write) accesses
system.l2.demand_miss_rate::.cpu.inst               1                       # miss rate for demand accesses
system.l2.demand_miss_rate::.cpu.data               1                       # miss rate for demand accesses
system.l2.demand_miss_rate::.switch_cpus.inst            1                       # miss rate for demand accesses
system.l2.demand_miss_rate::.switch_cpus.data     0.477724                       # miss rate for demand accesses
system.l2.demand_miss_rate::total            0.477963                       # miss rate for demand accesses
system.l2.overall_miss_rate::.cpu.inst              1                       # miss rate for overall accesses
system.l2.overall_miss_rate::.cpu.data              1                       # miss rate for overall accesses
system.l2.overall_miss_rate::.switch_cpus.inst            1                       # miss rate for overall accesses
system.l2.overall_miss_rate::.switch_cpus.data     0.477724                       # miss rate for overall accesses
system.l2.overall_miss_rate::total           0.477963                       # miss rate for overall accesses
system.l2.demand_avg_miss_latency::.switch_cpus.inst 76707.317073                       # average overall miss latency
system.l2.demand_avg_miss_latency::.switch_cpus.data 79473.780599                       # average overall miss latency
system.l2.demand_avg_miss_latency::total 79461.780850                       # average overall miss latency
system.l2.overall_avg_miss_latency::.switch_cpus.inst 76707.317073                       # average overall miss latency
system.l2.overall_avg_miss_latency::.switch_cpus.data 79473.780599                       # average overall miss latency
system.l2.overall_avg_miss_latency::total 79461.780850                       # average overall miss latency
system.l2.blocked_cycles::no_mshrs                  0                       # number of cycles access was blocked
system.l2.blocked_cycles::no_targets                0                       # number of cycles access was blocked
system.l2.blocked::no_mshrs                         0                       # number of cycles access was blocked
system.l2.blocked::no_targets                       0                       # number of cycles access was blocked
system.l2.avg_blocked_cycles::no_mshrs            nan                       # average number of cycles each access was blocked
system.l2.avg_blocked_cycles::no_targets          nan                       # average number of cycles each access was blocked
system.l2.unused_prefetches                        41                       # number of HardPF blocks evicted w/o reference
system.l2.writebacks::.writebacks                  51                       # number of writebacks
system.l2.writebacks::total                        51                       # number of writebacks
system.l2.demand_mshr_misses::.switch_cpus.inst           41                       # number of demand (read+write) MSHR misses
system.l2.demand_mshr_misses::.switch_cpus.data        49143                       # number of demand (read+write) MSHR misses
system.l2.demand_mshr_misses::total             49184                       # number of demand (read+write) MSHR misses
system.l2.overall_mshr_misses::.l2.prefetcher        48995                       # number of overall MSHR misses
system.l2.overall_mshr_misses::.switch_cpus.inst           41                       # number of overall MSHR misses
system.l2.overall_mshr_misses::.switch_cpus.data        49143                       # number of overall MSHR misses
system.l2.overall_mshr_misses::total            98179                       # number of overall MSHR misses
system.l2.demand_mshr_miss_latency::.switch_cpus.inst      2735000                       # number of demand (read+write) MSHR miss cycles
system.l2.demand_mshr_miss_latency::.switch_cpus.data   3414150000                       # number of demand (read+write) MSHR miss cycles
system.l2.demand_mshr_miss_latency::total   3416885000                       # number of demand (read+write) MSHR miss cycles
system.l2.overall_mshr_miss_latency::.l2.prefetcher   3054041728                       # number of overall MSHR miss cycles
system.l2.overall_mshr_miss_latency::.switch_cpus.inst      2735000                       # number of overall MSHR miss cycles
system.l2.overall_mshr_miss_latency::.switch_cpus.data   3414150000                       # number of overall MSHR miss cycles
system.l2.overall_mshr_miss_latency::total   6470926728                       # number of overall MSHR miss cycles
system.l2.demand_mshr_miss_rate::.switch_cpus.inst            1                       # mshr miss rate for demand accesses
system.l2.demand_mshr_miss_rate::.switch_cpus.data     0.477724                       # mshr miss rate for demand accesses
system.l2.demand_mshr_miss_rate::total       0.477904                       # mshr miss rate for demand accesses
system.l2.overall_mshr_miss_rate::.l2.prefetcher          inf                       # mshr miss rate for overall accesses
system.l2.overall_mshr_miss_rate::.switch_cpus.inst            1                       # mshr miss rate for overall accesses
system.l2.overall_mshr_miss_rate::.switch_cpus.data     0.477724                       # mshr miss rate for overall accesses
system.l2.overall_mshr_miss_rate::total      0.953972                       # mshr miss rate for overall accesses
system.l2.demand_avg_mshr_miss_latency::.switch_cpus.inst 66707.317073                       # average overall mshr miss latency
system.l2.demand_avg_mshr_miss_latency::.switch_cpus.data 69473.780599                       # average overall mshr miss latency
system.l2.demand_avg_mshr_miss_latency::total 69471.474463                       # average overall mshr miss latency
system.l2.overall_avg_mshr_miss_latency::.l2.prefetcher 62333.742790                       # average overall mshr miss latency
system.l2.overall_avg_mshr_miss_latency::.switch_cpus.inst 66707.317073                       # average overall mshr miss latency
system.l2.overall_avg_mshr_miss_latency::.switch_cpus.data 69473.780599                       # average overall mshr miss latency
system.l2.overall_avg_mshr_miss_latency::total 65909.478891                       # average overall mshr miss latency
system.l2.replacements                          94089                       # number of replacements
system.l2.WritebackDirty_hits::.writebacks           57                       # number of WritebackDirty hits
system.l2.WritebackDirty_hits::total               57                       # number of WritebackDirty hits
system.l2.WritebackDirty_accesses::.writebacks           57                       # number of WritebackDirty accesses(hits+misses)
system.l2.WritebackDirty_accesses::total           57                       # number of WritebackDirty accesses(hits+misses)
system.l2.CleanEvict_mshr_misses::.writebacks           13                       # number of CleanEvict MSHR misses
system.l2.CleanEvict_mshr_misses::total            13                       # number of CleanEvict MSHR misses
system.l2.CleanEvict_mshr_miss_rate::.writebacks          inf                       # mshr miss rate for CleanEvict accesses
system.l2.CleanEvict_mshr_miss_rate::total          inf                       # mshr miss rate for CleanEvict accesses
system.l2.HardPFReq_mshr_misses::.l2.prefetcher        48995                       # number of HardPFReq MSHR misses
system.l2.HardPFReq_mshr_misses::total          48995                       # number of HardPFReq MSHR misses
system.l2.HardPFReq_mshr_miss_latency::.l2.prefetcher   3054041728                       # number of HardPFReq MSHR miss cycles
system.l2.HardPFReq_mshr_miss_latency::total   3054041728                       # number of HardPFReq MSHR miss cycles
system.l2.HardPFReq_mshr_miss_rate::.l2.prefetcher          inf                       # mshr miss rate for HardPFReq accesses
system.l2.HardPFReq_mshr_miss_rate::total          inf                       # mshr miss rate for HardPFReq accesses
system.l2.HardPFReq_avg_mshr_miss_latency::.l2.prefetcher 62333.742790                       # average HardPFReq mshr miss latency
system.l2.HardPFReq_avg_mshr_miss_latency::total 62333.742790                       # average HardPFReq mshr miss latency
system.l2.ReadExReq_misses::.switch_cpus.data           11                       # number of ReadExReq misses
system.l2.ReadExReq_misses::total                  11                       # number of ReadExReq misses
system.l2.ReadExReq_miss_latency::.switch_cpus.data       554500                       # number of ReadExReq miss cycles
system.l2.ReadExReq_miss_latency::total        554500                       # number of ReadExReq miss cycles
system.l2.ReadExReq_accesses::.switch_cpus.data           11                       # number of ReadExReq accesses(hits+misses)
system.l2.ReadExReq_accesses::total                11                       # number of ReadExReq accesses(hits+misses)
system.l2.ReadExReq_miss_rate::.switch_cpus.data            1                       # miss rate for ReadExReq accesses
system.l2.ReadExReq_miss_rate::total                1                       # miss rate for ReadExReq accesses
system.l2.ReadExReq_avg_miss_latency::.switch_cpus.data 50409.090909                       # average ReadExReq miss latency
system.l2.ReadExReq_avg_miss_latency::total 50409.090909                       # average ReadExReq miss latency
system.l2.ReadExReq_mshr_misses::.switch_cpus.data           11                       # number of ReadExReq MSHR misses
system.l2.ReadExReq_mshr_misses::total             11                       # number of ReadExReq MSHR misses
system.l2.ReadExReq_mshr_miss_latency::.switch_cpus.data       444500                       # number of ReadExReq MSHR miss cycles
system.l2.ReadExReq_mshr_miss_latency::total       444500                       # number of ReadExReq MSHR miss cycles
system.l2.ReadExReq_mshr_miss_rate::.switch_cpus.data            1                       # mshr miss rate for ReadExReq accesses
system.l2.ReadExReq_mshr_miss_rate::total            1                       # mshr miss rate for ReadExReq accesses
system.l2.ReadExReq_avg_mshr_miss_latency::.switch_cpus.data 40409.090909                       # average ReadExReq mshr miss latency
system.l2.ReadExReq_avg_mshr_miss_latency::total 40409.090909                       # average ReadExReq mshr miss latency
system.l2.ReadCleanReq_misses::.cpu.inst            3                       # number of ReadCleanReq misses
system.l2.ReadCleanReq_misses::.switch_cpus.inst           41                       # number of ReadCleanReq misses
system.l2.ReadCleanReq_misses::total               44                       # number of ReadCleanReq misses
system.l2.ReadCleanReq_miss_latency::.switch_cpus.inst      3145000                       # number of ReadCleanReq miss cycles
system.l2.ReadCleanReq_miss_latency::total      3145000                       # number of ReadCleanReq miss cycles
system.l2.ReadCleanReq_accesses::.cpu.inst            3                       # number of ReadCleanReq accesses(hits+misses)
system.l2.ReadCleanReq_accesses::.switch_cpus.inst           41                       # number of ReadCleanReq accesses(hits+misses)
[...]
system.cpu.icache.tags.age_task_id_blocks_1024::4           47                       # Occupied blocks per task id
system.cpu.icache.tags.occ_task_id_percent::1024     0.093750                       # Percentage of cache occupancy per task id
system.cpu.icache.tags.tag_accesses           6581048                       # Number of tag accesses
system.cpu.icache.tags.data_accesses          6581048                       # Number of data accesses
system.cpu.dtb.walker.pwrStateResidencyTicks::UNDEFINED 136235376083500                       # Cumulative time (in ticks) in various power states
system.cpu.interrupts.clk_domain.clock           8000                       # Clock period in ticks
system.cpu.itb_walker_cache.pwrStateResidencyTicks::UNDEFINED 136235376083500                       # Cumulative time (in ticks) in various power states
system.cpu.itb_walker_cache.blocked_cycles::no_mshrs            0                       # number of cycles access was blocked
system.cpu.itb_walker_cache.blocked_cycles::no_targets            0                       # number of cycles access was blocked
system.cpu.itb_walker_cache.blocked::no_mshrs            0                       # number of cycles access was blocked
system.cpu.itb_walker_cache.blocked::no_targets            0                       # number of cycles access was blocked
system.cpu.itb_walker_cache.avg_blocked_cycles::no_mshrs          nan                       # average number of cycles each access was blocked
system.cpu.itb_walker_cache.avg_blocked_cycles::no_targets          nan                       # average number of cycles each access was blocked
system.cpu.itb_walker_cache.replacements            0                       # number of replacements
system.cpu.itb_walker_cache.tags.pwrStateResidencyTicks::UNDEFINED 136235376083500                       # Cumulative time (in ticks) in various power states
system.cpu.itb_walker_cache.tags.tagsinuse            0                       # Cycle average of tags in use
system.cpu.itb_walker_cache.tags.total_refs            0                       # Total number of references to valid blocks.
system.cpu.itb_walker_cache.tags.sampled_refs            0                       # Sample count of references to valid blocks.
system.cpu.itb_walker_cache.tags.avg_refs          nan                       # Average number of references to valid blocks.
system.cpu.itb_walker_cache.tags.warmup_cycle            0                       # Cycle when the warmup percentage was hit.
system.cpu.itb_walker_cache.tags.tag_accesses            0                       # Number of tag accesses
system.cpu.itb_walker_cache.tags.data_accesses            0                       # Number of data accesses
system.cpu.itb.walker.pwrStateResidencyTicks::UNDEFINED 136235376083500                       # Cumulative time (in ticks) in various power states
system.cpu.dtb_walker_cache.pwrStateResidencyTicks::UNDEFINED 136235376083500                       # Cumulative time (in ticks) in various power states
system.cpu.dtb_walker_cache.blocked_cycles::no_mshrs            0                       # number of cycles access was blocked
system.cpu.dtb_walker_cache.blocked_cycles::no_targets            0                       # number of cycles access was blocked
system.cpu.dtb_walker_cache.blocked::no_mshrs            0                       # number of cycles access was blocked
system.cpu.dtb_walker_cache.blocked::no_targets            0                       # number of cycles access was blocked
system.cpu.dtb_walker_cache.avg_blocked_cycles::no_mshrs          nan                       # average number of cycles each access was blocked
system.cpu.dtb_walker_cache.avg_blocked_cycles::no_targets          nan                       # average number of cycles each access was blocked
system.cpu.dtb_walker_cache.replacements            0                       # number of replacements
system.cpu.dtb_walker_cache.tags.pwrStateResidencyTicks::UNDEFINED 136235376083500                       # Cumulative time (in ticks) in various power states
system.cpu.dtb_walker_cache.tags.tagsinuse            0                       # Cycle average of tags in use
system.cpu.dtb_walker_cache.tags.total_refs            0                       # Total number of references to valid blocks.
system.cpu.dtb_walker_cache.tags.sampled_refs            0                       # Sample count of references to valid blocks.
system.cpu.dtb_walker_cache.tags.avg_refs          nan                       # Average number of references to valid blocks.
system.cpu.dtb_walker_cache.tags.warmup_cycle            0                       # Cycle when the warmup percentage was hit.
system.cpu.dtb_walker_cache.tags.tag_accesses            0                       # Number of tag accesses
system.cpu.dtb_walker_cache.tags.data_accesses            0                       # Number of data accesses
system.cpu.dcache.pwrStateResidencyTicks::UNDEFINED 136235376083500                       # Cumulative time (in ticks) in various power states
system.cpu.dcache.demand_hits::.switch_cpus.data     15747178                       # number of demand (read+write) hits
system.cpu.dcache.demand_hits::total         15747178                       # number of demand (read+write) hits
system.cpu.dcache.overall_hits::.switch_cpus.data     15747178                       # number of overall hits
system.cpu.dcache.overall_hits::total        15747178                       # number of overall hits
system.cpu.dcache.demand_misses::.cpu.data            3                       # number of demand (read+write) misses
system.cpu.dcache.demand_misses::.switch_cpus.data      2886679                       # number of demand (read+write) misses
system.cpu.dcache.demand_misses::total        2886682                       # number of demand (read+write) misses
system.cpu.dcache.overall_misses::.cpu.data            3                       # number of overall misses
system.cpu.dcache.overall_misses::.switch_cpus.data      2886679                       # number of overall misses
system.cpu.dcache.overall_misses::total       2886682                       # number of overall misses
system.cpu.dcache.demand_miss_latency::.switch_cpus.data 121248848500                       # number of demand (read+write) miss cycles
system.cpu.dcache.demand_miss_latency::total 121248848500                       # number of demand (read+write) miss cycles
system.cpu.dcache.overall_miss_latency::.switch_cpus.data 121248848500                       # number of overall miss cycles
system.cpu.dcache.overall_miss_latency::total 121248848500                       # number of overall miss cycles
system.cpu.dcache.demand_accesses::.cpu.data            3                       # number of demand (read+write) accesses
system.cpu.dcache.demand_accesses::.switch_cpus.data     18633857                       # number of demand (read+write) accesses
system.cpu.dcache.demand_accesses::total     18633860                       # number of demand (read+write) accesses
system.cpu.dcache.overall_accesses::.cpu.data            3                       # number of overall (read+write) accesses
system.cpu.dcache.overall_accesses::.switch_cpus.data     18633857                       # number of overall (read+write) accesses
system.cpu.dcache.overall_accesses::total     18633860                       # number of overall (read+write) accesses
system.cpu.dcache.demand_miss_rate::.cpu.data            1                       # miss rate for demand accesses
system.cpu.dcache.demand_miss_rate::.switch_cpus.data     0.154916                       # miss rate for demand accesses
system.cpu.dcache.demand_miss_rate::total     0.154916                       # miss rate for demand accesses
system.cpu.dcache.overall_miss_rate::.cpu.data            1                       # miss rate for overall accesses
system.cpu.dcache.overall_miss_rate::.switch_cpus.data     0.154916                       # miss rate for overall accesses
system.cpu.dcache.overall_miss_rate::total     0.154916                       # miss rate for overall accesses
system.cpu.dcache.demand_avg_miss_latency::.switch_cpus.data 42002.885842                       # average overall miss latency
system.cpu.dcache.demand_avg_miss_latency::total 42002.842190                       # average overall miss latency
system.cpu.dcache.overall_avg_miss_latency::.switch_cpus.data 42002.885842                       # average overall miss latency
system.cpu.dcache.overall_avg_miss_latency::total 42002.842190                       # average overall miss latency
system.cpu.dcache.blocked_cycles::no_mshrs         1726                       # number of cycles access was blocked
system.cpu.dcache.blocked_cycles::no_targets            0                       # number of cycles access was blocked
system.cpu.dcache.blocked::no_mshrs                42                       # number of cycles access was blocked
system.cpu.dcache.blocked::no_targets               0                       # number of cycles access was blocked
system.cpu.dcache.avg_blocked_cycles::no_mshrs    41.095238                       # average number of cycles each access was blocked
system.cpu.dcache.avg_blocked_cycles::no_targets          nan                       # average number of cycles each access was blocked
system.cpu.dcache.writebacks::.writebacks          215                       # number of writebacks
system.cpu.dcache.writebacks::total               215                       # number of writebacks
system.cpu.dcache.demand_mshr_hits::.switch_cpus.data      2475604                       # number of demand (read+write) MSHR hits
system.cpu.dcache.demand_mshr_hits::total      2475604                       # number of demand (read+write) MSHR hits
system.cpu.dcache.overall_mshr_hits::.switch_cpus.data      2475604                       # number of overall MSHR hits
system.cpu.dcache.overall_mshr_hits::total      2475604                       # number of overall MSHR hits
system.cpu.dcache.demand_mshr_misses::.switch_cpus.data       411075                       # number of demand (read+write) MSHR misses
system.cpu.dcache.demand_mshr_misses::total       411075                       # number of demand (read+write) MSHR misses
system.cpu.dcache.overall_mshr_misses::.switch_cpus.data       411075                       # number of overall MSHR misses
system.cpu.dcache.overall_mshr_misses::total       411075                       # number of overall MSHR misses
system.cpu.dcache.demand_mshr_miss_latency::.switch_cpus.data  18599776000                       # number of demand (read+write) MSHR miss cycles
system.cpu.dcache.demand_mshr_miss_latency::total  18599776000                       # number of demand (read+write) MSHR miss cycles
system.cpu.dcache.overall_mshr_miss_latency::.switch_cpus.data  18599776000                       # number of overall MSHR miss cycles
system.cpu.dcache.overall_mshr_miss_latency::total  18599776000                       # number of overall MSHR miss cycles
system.cpu.dcache.demand_mshr_miss_rate::.switch_cpus.data     0.022061                       # mshr miss rate for demand accesses
system.cpu.dcache.demand_mshr_miss_rate::total     0.022061                       # mshr miss rate for demand accesses
system.cpu.dcache.overall_mshr_miss_rate::.switch_cpus.data     0.022061                       # mshr miss rate for overall accesses
system.cpu.dcache.overall_mshr_miss_rate::total     0.022061                       # mshr miss rate for overall accesses
system.cpu.dcache.demand_avg_mshr_miss_latency::.switch_cpus.data 45246.672748                       # average overall mshr miss latency
system.cpu.dcache.demand_avg_mshr_miss_latency::total 45246.672748                       # average overall mshr miss latency
system.cpu.dcache.overall_avg_mshr_miss_latency::.switch_cpus.data 45246.672748                       # average overall mshr miss latency
system.cpu.dcache.overall_avg_mshr_miss_latency::total 45246.672748                       # average overall mshr miss latency
system.cpu.dcache.replacements                 410053                       # number of replacements
system.cpu.dcache.ReadReq_hits::.switch_cpus.data     15198536                       # number of ReadReq hits
system.cpu.dcache.ReadReq_hits::total        15198536                       # number of ReadReq hits
system.cpu.dcache.ReadReq_misses::.cpu.data            3                       # number of ReadReq misses
system.cpu.dcache.ReadReq_misses::.switch_cpus.data      2886625                       # number of ReadReq misses
system.cpu.dcache.ReadReq_misses::total       2886628                       # number of ReadReq misses
system.cpu.dcache.ReadReq_miss_latency::.switch_cpus.data 121246422000                       # number of ReadReq miss cycles
system.cpu.dcache.ReadReq_miss_latency::total 121246422000                       # number of ReadReq miss cycles
system.cpu.dcache.ReadReq_accesses::.cpu.data            3                       # number of ReadReq accesses(hits+misses)
system.cpu.dcache.ReadReq_accesses::.switch_cpus.data     18085161                       # number of ReadReq accesses(hits+misses)
system.cpu.dcache.ReadReq_accesses::total     18085164                       # number of ReadReq accesses(hits+misses)
system.cpu.dcache.ReadReq_miss_rate::.cpu.data            1                       # miss rate for ReadReq accesses
system.cpu.dcache.ReadReq_miss_rate::.switch_cpus.data     0.159613                       # miss rate for ReadReq accesses
system.cpu.dcache.ReadReq_miss_rate::total     0.159613                       # miss rate for ReadReq accesses
system.cpu.dcache.ReadReq_avg_miss_latency::.switch_cpus.data 42002.830988                       # average ReadReq miss latency
system.cpu.dcache.ReadReq_avg_miss_latency::total 42002.787335                       # average ReadReq miss latency
system.cpu.dcache.ReadReq_mshr_hits::.switch_cpus.data      2475591                       # number of ReadReq MSHR hits
system.cpu.dcache.ReadReq_mshr_hits::total      2475591                       # number of ReadReq MSHR hits
system.cpu.dcache.ReadReq_mshr_misses::.switch_cpus.data       411034                       # number of ReadReq MSHR misses
system.cpu.dcache.ReadReq_mshr_misses::total       411034                       # number of ReadReq MSHR misses
system.cpu.dcache.ReadReq_mshr_miss_latency::.switch_cpus.data  18597884000                       # number of ReadReq MSHR miss cycles
system.cpu.dcache.ReadReq_mshr_miss_latency::total  18597884000                       # number of ReadReq MSHR miss cycles
system.cpu.dcache.ReadReq_mshr_miss_rate::.switch_cpus.data     0.022728                       # mshr miss rate for ReadReq accesses
system.cpu.dcache.ReadReq_mshr_miss_rate::total     0.022728                       # mshr miss rate for ReadReq accesses
system.cpu.dcache.ReadReq_avg_mshr_miss_latency::.switch_cpus.data 45246.583008                       # average ReadReq mshr miss latency
system.cpu.dcache.ReadReq_avg_mshr_miss_latency::total 45246.583008                       # average ReadReq mshr miss latency
system.cpu.dcache.WriteReq_hits::.switch_cpus.data       548642                       # number of WriteReq hits
system.cpu.dcache.WriteReq_hits::total         548642                       # number of WriteReq hits
system.cpu.dcache.WriteReq_misses::.switch_cpus.data           54                       # number of WriteReq misses
system.cpu.dcache.WriteReq_misses::total           54                       # number of WriteReq misses
system.cpu.dcache.WriteReq_miss_latency::.switch_cpus.data      2426500                       # number of WriteReq miss cycles
system.cpu.dcache.WriteReq_miss_latency::total      2426500                       # number of WriteReq miss cycles
system.cpu.dcache.WriteReq_accesses::.switch_cpus.data       548696                       # number of WriteReq accesses(hits+misses)
system.cpu.dcache.WriteReq_accesses::total       548696                       # number of WriteReq accesses(hits+misses)
system.cpu.dcache.WriteReq_miss_rate::.switch_cpus.data     0.000098                       # miss rate for WriteReq accesses
system.cpu.dcache.WriteReq_miss_rate::total     0.000098                       # miss rate for WriteReq accesses
system.cpu.dcache.WriteReq_avg_miss_latency::.switch_cpus.data 44935.185185                       # average WriteReq miss latency
system.cpu.dcache.WriteReq_avg_miss_latency::total 44935.185185                       # average WriteReq miss latency
system.cpu.dcache.WriteReq_mshr_hits::.switch_cpus.data           13                       # number of WriteReq MSHR hits
system.cpu.dcache.WriteReq_mshr_hits::total           13                       # number of WriteReq MSHR hits
system.cpu.dcache.WriteReq_mshr_misses::.switch_cpus.data           41                       # number of WriteReq MSHR misses
system.cpu.dcache.WriteReq_mshr_misses::total           41                       # number of WriteReq MSHR misses
system.cpu.dcache.WriteReq_mshr_miss_latency::.switch_cpus.data      1892000                       # number of WriteReq MSHR miss cycles
system.cpu.dcache.WriteReq_mshr_miss_latency::total      1892000                       # number of WriteReq MSHR miss cycles
system.cpu.dcache.WriteReq_mshr_miss_rate::.switch_cpus.data     0.000075                       # mshr miss rate for WriteReq accesses
system.cpu.dcache.WriteReq_mshr_miss_rate::total     0.000075                       # mshr miss rate for WriteReq accesses
system.cpu.dcache.WriteReq_avg_mshr_miss_latency::.switch_cpus.data 46146.341463                       # average WriteReq mshr miss latency
system.cpu.dcache.WriteReq_avg_mshr_miss_latency::total 46146.341463                       # average WriteReq mshr miss latency
system.cpu.dcache.tags.pwrStateResidencyTicks::UNDEFINED 136235376083500                       # Cumulative time (in ticks) in various power states
system.cpu.dcache.tags.tagsinuse             0.157520                       # Cycle average of tags in use
system.cpu.dcache.tags.total_refs            16158255                       # Total number of references to valid blocks.
system.cpu.dcache.tags.sampled_refs            411077                       # Sample count of references to valid blocks.
system.cpu.dcache.tags.avg_refs             39.307125                       # Average number of references to valid blocks.
system.cpu.dcache.tags.warmup_cycle      136214386326500                       # Cycle when the warmup percentage was hit.
system.cpu.dcache.tags.occ_blocks::.cpu.data     0.000001                       # Average occupied blocks per requestor
system.cpu.dcache.tags.occ_blocks::.switch_cpus.data     0.157519                       # Average occupied blocks per requestor
system.cpu.dcache.tags.occ_percent::.cpu.data     0.000000                       # Average percentage of cache occupancy
system.cpu.dcache.tags.occ_percent::.switch_cpus.data     0.000154                       # Average percentage of cache occupancy
system.cpu.dcache.tags.occ_percent::total     0.000154                       # Average percentage of cache occupancy
system.cpu.dcache.tags.occ_task_id_blocks::1024         1024                       # Occupied blocks per task id
system.cpu.dcache.tags.age_task_id_blocks_1024::0          188                       # Occupied blocks per task id
system.cpu.dcache.tags.age_task_id_blocks_1024::1          835                       # Occupied blocks per task id
system.cpu.dcache.tags.age_task_id_blocks_1024::4            1                       # Occupied blocks per task id
system.cpu.dcache.tags.occ_task_id_percent::1024            1                       # Percentage of cache occupancy per task id
system.cpu.dcache.tags.tag_accesses          37678797                       # Number of tag accesses
system.cpu.dcache.tags.data_accesses         37678797                       # Number of data accesses

---------- End Simulation Statistics   ----------
