
---------- Begin Simulation Statistics ----------
final_tick                               572573847725000                       # Number of ticks from beginning of simulation (restored from checkpoints and never reset)
host_inst_rate                                  48087                       # Simulator instruction rate (inst/s)
host_mem_usage                                 878876                       # Number of bytes of host memory used
host_op_rate                                   108086                       # Simulator op (including micro ops) rate (op/s)
host_seconds                                   207.96                       # Real time elapsed on the host
host_tick_rate                               31422296                       # Simulator tick rate (ticks/s)
sim_freq                                 1000000000000                       # Frequency of simulated ticks
sim_insts                                    10000011                       # Number of instructions simulated
sim_ops                                      22477223                       # Number of ops (including micro ops) simulated
sim_seconds                                  0.006534                       # Number of seconds simulated
sim_ticks                                  6534471250                       # Number of ticks simulated
system.cpu.committedInsts                           8                       # Number of instructions committed
system.cpu.committedOps                            14                       # Number of ops (including micro ops) committed
system.cpu.dtb.rdAccesses                           4                       # TLB accesses on read requests
system.cpu.dtb.rdMisses                             0                       # TLB misses on read requests
system.cpu.dtb.wrAccesses                           2                       # TLB accesses on write requests
system.cpu.dtb.wrMisses                             0                       # TLB misses on write requests
system.cpu.idle_fraction                            0                       # Percentage of idle cycles
system.cpu.itb.rdAccesses                           0                       # TLB accesses on read requests
system.cpu.itb.rdMisses                             0                       # TLB misses on read requests
system.cpu.itb.wrAccesses                          14                       # TLB accesses on write requests
system.cpu.itb.wrMisses                             0                       # TLB misses on write requests
system.cpu.not_idle_fraction                        1                       # Percentage of non-idle cycles
system.cpu.numCycles                               20                       # number of cpu cycles simulated
system.cpu.numWorkItemsCompleted                    0                       # number of work items this cpu completed
system.cpu.numWorkItemsStarted                      0                       # number of work items this cpu started
system.cpu.num_busy_cycles                         20                       # Number of busy cycles
system.cpu.num_conditional_control_insts            0                       # number of instructions that are conditional controls
system.cpu.num_fp_alu_accesses                     12                       # Number of float alu accesses
system.cpu.num_fp_insts                            12                       # number of float instructions
system.cpu.num_fp_register_reads                   22                       # number of times the floating registers were read
system.cpu.num_fp_register_writes                  10                       # number of times the floating registers were written
system.cpu.num_func_calls                           0                       # number of times a function call or return occured
system.cpu.num_idle_cycles                          0                       # Number of idle cycles
system.cpu.num_int_alu_accesses                     6                       # Number of integer alu accesses
system.cpu.num_int_insts                            6                       # number of integer instructions
system.cpu.num_int_register_reads                  18                       # number of times the integer registers were read
system.cpu.num_int_register_writes                  2                       # number of times the integer registers were written
system.cpu.num_load_insts                           4                       # Number of load instructions
system.cpu.num_mem_refs                             6                       # number of memory refs
system.cpu.num_store_insts                          2                       # Number of store instructions
system.cpu.num_vec_alu_accesses                     0                       # Number of vector alu accesses
system.cpu.num_vec_insts                            0                       # number of vector instructions
system.cpu.num_vec_register_reads                   0                       # number of times the vector registers were read
system.cpu.num_vec_register_writes                  0                       # number of times the vector registers were written
system.cpu.op_class::No_OpClass                     0      0.00%      0.00% # Class of executed instruction
system.cpu.op_class::IntAlu                         4     28.57%     28.57% # Class of executed instruction
system.cpu.op_class::IntMult                        0      0.00%     28.57% # Class of executed instruction
system.cpu.op_class::IntDiv                         0      0.00%     28.57% # Class of executed instruction
system.cpu.op_class::FloatAdd                       0      0.00%     28.57% # Class of executed instruction
system.cpu.op_class::FloatCmp                       0      0.00%     28.57% # Class of executed instruction
system.cpu.op_class::FloatCvt                       0      0.00%     28.57% # Class of executed instruction
system.cpu.op_class::FloatMult                      0      0.00%     28.57% # Class of executed instruction
system.cpu.op_class::FloatMultAcc                   0      0.00%     28.57% # Class of executed instruction
system.cpu.op_class::FloatDiv                       0      0.00%     28.57% # Class of executed instruction
system.cpu.op_class::FloatMisc                      0      0.00%     28.57% # Class of executed instruction
system.cpu.op_class::FloatSqrt                      0      0.00%     28.57% # Class of executed instruction
system.cpu.op_class::SimdAdd                        0      0.00%     28.57% # Class of executed instruction
system.cpu.op_class::SimdAddAcc                     0      0.00%     28.57% # Class of executed instruction
system.cpu.op_class::SimdAlu                        0      0.00%     28.57% # Class of executed instruction
system.cpu.op_class::SimdCmp                        0      0.00%     28.57% # Class of executed instruction
system.cpu.op_class::SimdCvt                        0      0.00%     28.57% # Class of executed instruction
system.cpu.op_class::SimdMisc                       0      0.00%     28.57% # Class of executed instruction
system.cpu.op_class::SimdMult                       0      0.00%     28.57% # Class of executed instruction
system.cpu.op_class::SimdMultAcc                    0      0.00%     28.57% # Class of executed instruction
system.cpu.op_class::SimdShift                      0      0.00%     28.57% # Class of executed instruction
system.cpu.op_class::SimdShiftAcc                   0      0.00%     28.57% # Class of executed instruction
system.cpu.op_class::SimdDiv                        0      0.00%     28.57% # Class of executed instruction
system.cpu.op_class::SimdSqrt                       0      0.00%     28.57% # Class of executed instruction
system.cpu.op_class::SimdFloatAdd                   2     14.29%     42.86% # Class of executed instruction
system.cpu.op_class::SimdFloatAlu                   0      0.00%     42.86% # Class of executed instruction
system.cpu.op_class::SimdFloatCmp                   0      0.00%     42.86% # Class of executed instruction
system.cpu.op_class::SimdFloatCvt                   0      0.00%     42.86% # Class of executed instruction
system.cpu.op_class::SimdFloatDiv                   0      0.00%     42.86% # Class of executed instruction
system.cpu.op_class::SimdFloatMisc                  0      0.00%     42.86% # Class of executed instruction
system.cpu.op_class::SimdFloatMult                  2     14.29%     57.14% # Class of executed instruction
system.cpu.op_class::SimdFloatMultAcc               0      0.00%     57.14% # Class of executed instruction
system.cpu.op_class::SimdFloatSqrt                  0      0.00%     57.14% # Class of executed instruction
system.cpu.op_class::SimdReduceAdd                  0      0.00%     57.14% # Class of executed instruction
system.cpu.op_class::SimdReduceAlu                  0      0.00%     57.14% # Class of executed instruction
system.cpu.op_class::SimdReduceCmp                  0      0.00%     57.14% # Class of executed instruction
system.cpu.op_class::SimdFloatReduceAdd             0      0.00%     57.14% # Class of executed instruction
system.cpu.op_class::SimdFloatReduceCmp             0      0.00%     57.14% # Class of executed instruction
system.cpu.op_class::SimdAes                        0      0.00%     57.14% # Class of executed instruction
system.cpu.op_class::SimdAesMix                     0      0.00%     57.14% # Class of executed instruction
system.cpu.op_class::SimdSha1Hash                   0      0.00%     57.14% # Class of executed instruction
system.cpu.op_class::SimdSha1Hash2                  0      0.00%     57.14% # Class of executed instruction
system.cpu.op_class::SimdSha256Hash                 0      0.00%     57.14% # Class of executed instruction
system.cpu.op_class::SimdSha256Hash2                0      0.00%     57.14% # Class of executed instruction
system.cpu.op_class::SimdShaSigma2                  0      0.00%     57.14% # Class of executed instruction
system.cpu.op_class::SimdShaSigma3                  0      0.00%     57.14% # Class of executed instruction
system.cpu.op_class::SimdPredAlu                    0      0.00%     57.14% # Class of executed instruction
system.cpu.op_class::MemRead                        2     14.29%     71.43% # Class of executed instruction
system.cpu.op_class::MemWrite                       0      0.00%     71.43% # Class of executed instruction
system.cpu.op_class::FloatMemRead                   2     14.29%     85.71% # Class of executed instruction
system.cpu.op_class::FloatMemWrite                  2     14.29%    100.00% # Class of executed instruction
system.cpu.op_class::IprAccess                      0      0.00%    100.00% # Class of executed instruction
system.cpu.op_class::InstPrefetch                   0      0.00%    100.00% # Class of executed instruction
system.cpu.op_class::total                         14                       # Class of executed instruction
system.cpu.workload.numSyscalls                     0                       # Number of system calls
system.l2.prefetcher.num_hwpf_issued            33607                       # number of hwpf issued
system.l2.prefetcher.pfBufferHit                    0                       # number of redundant prefetches already in prefetch queue
system.l2.prefetcher.pfIdentified               33607                       # number of prefetch candidates identified
system.l2.prefetcher.pfInCache                      0                       # number of redundant prefetches already in cache/mshr dropped
system.l2.prefetcher.pfRemovedFull                  0                       # number of prefetches dropped due to prefetch queue size
system.l2.prefetcher.pfSpanPage                  1337                       # number of prefetches that crossed the page
system.membus.snoop_filter.hit_multi_requests            0                       # Number of requests hitting in the snoop filter with multiple (>1) holders of the requested data.
system.membus.snoop_filter.hit_multi_snoops            0                       # Number of snoops hitting in the snoop filter with multiple (>1) holders of the requested data.
system.membus.snoop_filter.hit_single_requests        92011                       # Number of requests hitting in the snoop filter with a single holder of the requested data.
system.membus.snoop_filter.hit_single_snoops            0                       # Number of snoops hitting in the snoop filter with a single holder of the requested data.
system.membus.snoop_filter.tot_requests        188415                       # Total number of requests made to the snoop filter.
system.membus.snoop_filter.tot_snoops               0                       # Total number of snoops made to the snoop filter.
system.switch_cpus.branchPred.BTBCorrect            0                       # Number of correct BTB predictions (this stat may not work properly.
system.switch_cpus.branchPred.BTBHitPct      0.000000                       # BTB Hit Percentage
system.switch_cpus.branchPred.BTBHits               0                       # Number of BTB hits
system.switch_cpus.branchPred.BTBLookups        35141                       # Number of BTB lookups
system.switch_cpus.branchPred.RASInCorrect            0                       # Number of incorrect RAS predictions.
system.switch_cpus.branchPred.condIncorrect          802                       # Number of conditional branches incorrect
system.switch_cpus.branchPred.condPredicted        40241                       # Number of conditional branches predicted
system.switch_cpus.branchPred.indirectHits        28195                       # Number of indirect target hits.
system.switch_cpus.branchPred.indirectLookups        35141                       # Number of indirect predictor lookups.
system.switch_cpus.branchPred.indirectMisses         6946                       # Number of indirect misses.
system.switch_cpus.branchPred.lookups           45736                       # Number of BP lookups
system.switch_cpus.branchPred.usedRAS            5126                       # Number of times the RAS was used to get a target.
system.switch_cpus.branchPredindirectMispredicted           56                       # Number of mispredicted indirect branches.
system.switch_cpus.cc_regfile_reads            196476                       # number of cc regfile reads
system.switch_cpus.cc_regfile_writes           329192                       # number of cc regfile writes
system.switch_cpus.commit.amos                      0                       # Number of atomic instructions committed
system.switch_cpus.commit.branchMispredicts          802                       # The number of times a branch was mispredicted
system.switch_cpus.commit.branches              19425                       # Number of branches committed
system.switch_cpus.commit.bw_lim_events       1556311                       # number cycles where commit BW limit reached
system.switch_cpus.commit.commitNonSpecStalls          320                       # The number of times commit has been forced to stall to communicate backwards
system.switch_cpus.commit.commitSquashedInsts       468883                       # The number of squashed insts skipped by commit
system.switch_cpus.commit.committedInsts     10000003                       # Number of instructions committed
system.switch_cpus.commit.committedOps       22477209                       # Number of ops (including micro ops) committed
system.switch_cpus.commit.committed_per_cycle::samples     12973183                       # Number of insts commited each cycle
system.switch_cpus.commit.committed_per_cycle::mean     1.732590                       # Number of insts commited each cycle
system.switch_cpus.commit.committed_per_cycle::stdev     2.832477                       # Number of insts commited each cycle
system.switch_cpus.commit.committed_per_cycle::underflows            0      0.00%      0.00% # Number of insts commited each cycle
system.switch_cpus.commit.committed_per_cycle::0      8307031     64.03%     64.03% # Number of insts commited each cycle
system.switch_cpus.commit.committed_per_cycle::1       674398      5.20%     69.23% # Number of insts commited each cycle
system.switch_cpus.commit.committed_per_cycle::2       820506      6.32%     75.56% # Number of insts commited each cycle
system.switch_cpus.commit.committed_per_cycle::3       262677      2.02%     77.58% # Number of insts commited each cycle
system.switch_cpus.commit.committed_per_cycle::4       562300      4.33%     81.91% # Number of insts commited each cycle
system.switch_cpus.commit.committed_per_cycle::5       260347      2.01%     83.92% # Number of insts commited each cycle
system.switch_cpus.commit.committed_per_cycle::6       334946      2.58%     86.50% # Number of insts commited each cycle
system.switch_cpus.commit.committed_per_cycle::7       194667      1.50%     88.00% # Number of insts commited each cycle
system.switch_cpus.commit.committed_per_cycle::8      1556311     12.00%    100.00% # Number of insts commited each cycle
system.switch_cpus.commit.committed_per_cycle::overflows            0      0.00%    100.00% # Number of insts commited each cycle
system.switch_cpus.commit.committed_per_cycle::min_value            0                       # Number of insts commited each cycle
system.switch_cpus.commit.committed_per_cycle::max_value            8                       # Number of insts commited each cycle
system.switch_cpus.commit.committed_per_cycle::total     12973183                       # Number of insts commited each cycle
system.switch_cpus.commit.fp_insts           21302588                       # Number of committed floating point instructions.
system.switch_cpus.commit.function_calls          320                       # Number of function calls committed.
system.switch_cpus.commit.int_insts          10363628                       # Number of committed integer instructions.
system.switch_cpus.commit.loads               7651059                       # Number of loads committed
system.switch_cpus.commit.membars                   0                       # Number of memory barriers committed
system.switch_cpus.commit.op_class_0::No_OpClass          637      0.00%      0.00% # Class of committed instruction
system.switch_cpus.commit.op_class_0::IntAlu      3034818     13.50%     13.50% # Class of committed instruction
system.switch_cpus.commit.op_class_0::IntMult          658      0.00%     13.51% # Class of committed instruction
system.switch_cpus.commit.op_class_0::IntDiv            0      0.00%     13.51% # Class of committed instruction
system.switch_cpus.commit.op_class_0::FloatAdd          328      0.00%     13.51% # Class of committed instruction
system.switch_cpus.commit.op_class_0::FloatCmp            0      0.00%     13.51% # Class of committed instruction
system.switch_cpus.commit.op_class_0::FloatCvt            0      0.00%     13.51% # Class of committed instruction
system.switch_cpus.commit.op_class_0::FloatMult            0      0.00%     13.51% # Class of committed instruction
system.switch_cpus.commit.op_class_0::FloatMultAcc            0      0.00%     13.51% # Class of committed instruction
system.switch_cpus.commit.op_class_0::FloatDiv            0      0.00%     13.51% # Class of committed instruction
system.switch_cpus.commit.op_class_0::FloatMisc            0      0.00%     13.51% # Class of committed instruction
system.switch_cpus.commit.op_class_0::FloatSqrt            0      0.00%     13.51% # Class of committed instruction
system.switch_cpus.commit.op_class_0::SimdAdd            0      0.00%     13.51% # Class of committed instruction
system.switch_cpus.commit.op_class_0::SimdAddAcc            0      0.00%     13.51% # Class of committed instruction
system.switch_cpus.commit.op_class_0::SimdAlu        47722      0.21%     13.72% # Class of committed instruction
system.switch_cpus.commit.op_class_0::SimdCmp            0      0.00%     13.72% # Class of committed instruction
system.switch_cpus.commit.op_class_0::SimdCvt            0      0.00%     13.72% # Class of committed instruction
system.switch_cpus.commit.op_class_0::SimdMisc            0      0.00%     13.72% # Class of committed instruction
system.switch_cpus.commit.op_class_0::SimdMult            0      0.00%     13.72% # Class of committed instruction
system.switch_cpus.commit.op_class_0::SimdMultAcc            0      0.00%     13.72% # Class of committed instruction
system.switch_cpus.commit.op_class_0::SimdShift            0      0.00%     13.72% # Class of committed instruction
system.switch_cpus.commit.op_class_0::SimdShiftAcc            0      0.00%     13.72% # Class of committed instruction
system.switch_cpus.commit.op_class_0::SimdDiv            0      0.00%     13.72% # Class of committed instruction
system.switch_cpus.commit.op_class_0::SimdSqrt            0      0.00%     13.72% # Class of committed instruction
system.switch_cpus.commit.op_class_0::SimdFloatAdd      5476750     24.37%     38.09% # Class of committed instruction
system.switch_cpus.commit.op_class_0::SimdFloatAlu            0      0.00%     38.09% # Class of committed instruction
system.switch_cpus.commit.op_class_0::SimdFloatCmp            0      0.00%     38.09% # Class of committed instruction
system.switch_cpus.commit.op_class_0::SimdFloatCvt            0      0.00%     38.09% # Class of committed instruction
system.switch_cpus.commit.op_class_0::SimdFloatDiv        11440      0.05%     38.14% # Class of committed instruction
system.switch_cpus.commit.op_class_0::SimdFloatMisc            0      0.00%     38.14% # Class of committed instruction
system.switch_cpus.commit.op_class_0::SimdFloatMult      4002198     17.81%     55.94% # Class of committed instruction
system.switch_cpus.commit.op_class_0::SimdFloatMultAcc            0      0.00%     55.94% # Class of committed instruction
system.switch_cpus.commit.op_class_0::SimdFloatSqrt            0      0.00%     55.94% # Class of committed instruction
system.switch_cpus.commit.op_class_0::SimdReduceAdd            0      0.00%     55.94% # Class of committed instruction
system.switch_cpus.commit.op_class_0::SimdReduceAlu            0      0.00%     55.94% # Class of committed instruction
system.switch_cpus.commit.op_class_0::SimdReduceCmp            0      0.00%     55.94% # Class of committed instruction
system.switch_cpus.commit.op_class_0::SimdFloatReduceAdd            0      0.00%     55.94% # Class of committed instruction
system.switch_cpus.commit.op_class_0::SimdFloatReduceCmp            0      0.00%     55.94% # Class of committed instruction
system.switch_cpus.commit.op_class_0::SimdAes            0      0.00%     55.94% # Class of committed instruction
system.switch_cpus.commit.op_class_0::SimdAesMix            0      0.00%     55.94% # Class of committed instruction
system.switch_cpus.commit.op_class_0::SimdSha1Hash            0      0.00%     55.94% # Class of committed instruction
system.switch_cpus.commit.op_class_0::SimdSha1Hash2            0      0.00%     55.94% # Class of committed instruction
system.switch_cpus.commit.op_class_0::SimdSha256Hash            0      0.00%     55.94% # Class of committed instruction
system.switch_cpus.commit.op_class_0::SimdSha256Hash2            0      0.00%     55.94% # Class of committed instruction
system.switch_cpus.commit.op_class_0::SimdShaSigma2            0      0.00%     55.94% # Class of committed instruction
system.switch_cpus.commit.op_class_0::SimdShaSigma3            0      0.00%     55.94% # Class of committed instruction
system.switch_cpus.commit.op_class_0::SimdPredAlu            0      0.00%     55.94% # Class of committed instruction
system.switch_cpus.commit.op_class_0::MemRead       657061      2.92%     58.87% # Class of committed instruction
system.switch_cpus.commit.op_class_0::MemWrite        55633      0.25%     59.11% # Class of committed instruction
system.switch_cpus.commit.op_class_0::FloatMemRead      6993998     31.12%     90.23% # Class of committed instruction
system.switch_cpus.commit.op_class_0::FloatMemWrite      2195966      9.77%    100.00% # Class of committed instruction
system.switch_cpus.commit.op_class_0::IprAccess            0      0.00%    100.00% # Class of committed instruction
system.switch_cpus.commit.op_class_0::InstPrefetch            0      0.00%    100.00% # Class of committed instruction
system.switch_cpus.commit.op_class_0::total     22477209                       # Class of committed instruction
system.switch_cpus.commit.refs                9902658                       # Number of memory references committed
system.switch_cpus.commit.swp_count                 0                       # Number of s/w prefetches committed
system.switch_cpus.commit.vec_insts                 0                       # Number of committed Vector instructions.
system.switch_cpus.committedInsts            10000003                       # Number of Instructions Simulated
system.switch_cpus.committedOps              22477209                       # Number of Ops (including micro ops) Simulated
system.switch_cpus.cpi                       1.306892                       # CPI: Cycles Per Instruction
system.switch_cpus.cpi_total                 1.306892                       # CPI: Total CPI of All Threads
system.switch_cpus.decode.BlockedCycles       9192452                       # Number of cycles decode is blocked
system.switch_cpus.decode.DecodedInsts       23108559                       # Number of instructions handled by decode
system.switch_cpus.decode.IdleCycles           737494                       # Number of cycles decode is idle
system.switch_cpus.decode.RunCycles           2471027                       # Number of cycles decode is running
system.switch_cpus.decode.SquashCycles           6081                       # Number of cycles decode is squashing
system.switch_cpus.decode.UnblockCycles        627647                       # Number of cycles decode is unblocking
system.switch_cpus.dtb.rdAccesses             7785822                       # TLB accesses on read requests
system.switch_cpus.dtb.rdMisses                  1497                       # TLB misses on read requests
system.switch_cpus.dtb.wrAccesses             2366909                       # TLB accesses on write requests
system.switch_cpus.dtb.wrMisses                   572                       # TLB misses on write requests
system.switch_cpus.fetch.Branches               45736                       # Number of branches that fetch encountered
system.switch_cpus.fetch.CacheLines           1083994                       # Number of cache lines fetched
system.switch_cpus.fetch.Cycles              11918369                       # Number of cycles fetch has run and was not squashing or blocked
system.switch_cpus.fetch.IcacheSquashes           107                       # Number of outstanding Icache misses that were squashed
system.switch_cpus.fetch.Insts               10473710                       # Number of instructions fetch has processed
system.switch_cpus.fetch.SquashCycles           12162                       # Number of cycles fetch has spent squashing
system.switch_cpus.fetch.branchRate          0.003500                       # Number of branch fetches per cycle
system.switch_cpus.fetch.icacheStallCycles      1110371                       # Number of cycles fetch is stalled on an Icache miss
system.switch_cpus.fetch.predictedBranches        33321                       # Number of branches that fetch has predicted taken
system.switch_cpus.fetch.rate                0.801421                       # Number of inst fetches per cycle
system.switch_cpus.fetch.rateDist::samples     13034821                       # Number of instructions fetched each cycle (Total)
system.switch_cpus.fetch.rateDist::mean      1.787891                       # Number of instructions fetched each cycle (Total)
system.switch_cpus.fetch.rateDist::stdev     3.167404                       # Number of instructions fetched each cycle (Total)
system.switch_cpus.fetch.rateDist::underflows            0      0.00%      0.00% # Number of instructions fetched each cycle (Total)
system.switch_cpus.fetch.rateDist::0          9554860     73.30%     73.30% # Number of instructions fetched each cycle (Total)
system.switch_cpus.fetch.rateDist::1           105892      0.81%     74.11% # Number of instructions fetched each cycle (Total)
system.switch_cpus.fetch.rateDist::2           216023      1.66%     75.77% # Number of instructions fetched each cycle (Total)
system.switch_cpus.fetch.rateDist::3           168612      1.29%     77.07% # Number of instructions fetched each cycle (Total)
system.switch_cpus.fetch.rateDist::4           178866      1.37%     78.44% # Number of instructions fetched each cycle (Total)
system.switch_cpus.fetch.rateDist::5           143429      1.10%     79.54% # Number of instructions fetched each cycle (Total)
system.switch_cpus.fetch.rateDist::6           217815      1.67%     81.21% # Number of instructions fetched each cycle (Total)
system.switch_cpus.fetch.rateDist::7            73031      0.56%     81.77% # Number of instructions fetched each cycle (Total)
system.switch_cpus.fetch.rateDist::8          2376293     18.23%    100.00% # Number of instructions fetched each cycle (Total)
system.switch_cpus.fetch.rateDist::overflows            0      0.00%    100.00% # Number of instructions fetched each cycle (Total)
system.switch_cpus.fetch.rateDist::min_value            0                       # Number of instructions fetched each cycle (Total)
system.switch_cpus.fetch.rateDist::max_value            8                       # Number of instructions fetched each cycle (Total)
system.switch_cpus.fetch.rateDist::total     13034821                       # Number of instructions fetched each cycle (Total)
system.switch_cpus.fp_regfile_reads          35988690                       # number of floating regfile reads
system.switch_cpus.fp_regfile_writes         19171770                       # number of floating regfile writes
system.switch_cpus.idleCycles                   34101                       # Total number of cycles that the CPU has spent unscheduled due to idling
system.switch_cpus.iew.branchMispredicts          835                       # Number of branch mispredicts detected at execute
system.switch_cpus.iew.exec_branches            37004                       # Number of branches executed
system.switch_cpus.iew.exec_nop                     0                       # number of nop insts executed
system.switch_cpus.iew.exec_rate             1.768671                       # Inst execution rate
system.switch_cpus.iew.exec_refs             10297173                       # number of memory reference insts executed
system.switch_cpus.iew.exec_stores            2366909                       # Number of stores executed
system.switch_cpus.iew.exec_swp                     0                       # number of swp insts executed
system.switch_cpus.iew.iewBlockCycles          329522                       # Number of cycles IEW is blocking
system.switch_cpus.iew.iewDispLoadInsts       7789696                       # Number of dispatched load instructions
system.switch_cpus.iew.iewDispNonSpecInsts            0                       # Number of dispatched non-speculative instructions
system.switch_cpus.iew.iewDispSquashedInsts            4                       # Number of squashed instructions skipped by dispatch
system.switch_cpus.iew.iewDispStoreInsts      2418857                       # Number of dispatched store instructions
system.switch_cpus.iew.iewDispatchedInsts     23042337                       # Number of instructions dispatched to IQ
system.switch_cpus.iew.iewExecLoadInsts       7930264                       # Number of load instructions executed
system.switch_cpus.iew.iewExecSquashedInsts         5020                       # Number of squashed instructions skipped in execute
system.switch_cpus.iew.iewExecutedInsts      23114628                       # Number of executed instructions
system.switch_cpus.iew.iewIQFullEvents           3607                       # Number of times the IQ has become full, causing a stall
system.switch_cpus.iew.iewIdleCycles                0                       # Number of cycles IEW is idle
system.switch_cpus.iew.iewLSQFullEvents       2598719                       # Number of times the LSQ has become full, causing a stall
system.switch_cpus.iew.iewSquashCycles           6081                       # Number of cycles IEW is squashing
system.switch_cpus.iew.iewUnblockCycles       2607785                       # Number of cycles IEW is unblocking
system.switch_cpus.iew.lsq.thread0.blockedLoads            0                       # Number of blocked loads due to partial load-store forwarding
system.switch_cpus.iew.lsq.thread0.cacheBlocked        27763                       # Number of times an access to memory failed due to the cache being blocked
system.switch_cpus.iew.lsq.thread0.forwLoads       586774                       # Number of loads that had data forwarded from stores
system.switch_cpus.iew.lsq.thread0.ignoredResponses            9                       # Number of memory responses ignored because the instruction is squashed
system.switch_cpus.iew.lsq.thread0.invAddrLoads            0                       # Number of loads ignored due to an invalid address
system.switch_cpus.iew.lsq.thread0.invAddrSwpfs            0                       # Number of software prefetches ignored due to an invalid address
system.switch_cpus.iew.lsq.thread0.memOrderViolation          239                       # Number of memory ordering violations
system.switch_cpus.iew.lsq.thread0.rescheduledLoads            0                       # Number of loads that were rescheduled
system.switch_cpus.iew.lsq.thread0.squashedLoads       138609                       # Number of loads squashed
system.switch_cpus.iew.lsq.thread0.squashedStores       167248                       # Number of stores squashed
system.switch_cpus.iew.memOrderViolationEvents          239                       # Number of memory order violations
system.switch_cpus.iew.predictedNotTakenIncorrect          145                       # Number of branches that were predicted not taken incorrectly
system.switch_cpus.iew.predictedTakenIncorrect          690                       # Number of branches that were predicted taken incorrectly
system.switch_cpus.iew.wb_consumers          28872891                       # num instructions consuming a value
system.switch_cpus.iew.wb_count              22918340                       # cumulative count of insts written-back
system.switch_cpus.iew.wb_fanout             0.606122                       # average fanout of values written-back
system.switch_cpus.iew.wb_producers          17500481                       # num instructions producing a value
system.switch_cpus.iew.wb_rate               1.753652                       # insts written-back per cycle
system.switch_cpus.iew.wb_sent               22961354                       # cumulative count of insts sent to commit
system.switch_cpus.int_regfile_reads         21267348                       # number of integer regfile reads
system.switch_cpus.int_regfile_writes         1345007                       # number of integer regfile writes
system.switch_cpus.ipc                       0.765174                       # IPC: Instructions Per Cycle
system.switch_cpus.ipc_total                 0.765174                       # IPC: Total IPC of All Threads
system.switch_cpus.iq.FU_type_0::No_OpClass        41141      0.18%      0.18% # Type of FU issued
system.switch_cpus.iq.FU_type_0::IntAlu       3237390     14.00%     14.18% # Type of FU issued
system.switch_cpus.iq.FU_type_0::IntMult          658      0.00%     14.18% # Type of FU issued
system.switch_cpus.iq.FU_type_0::IntDiv             0      0.00%     14.18% # Type of FU issued
system.switch_cpus.iq.FU_type_0::FloatAdd         2688      0.01%     14.20% # Type of FU issued
system.switch_cpus.iq.FU_type_0::FloatCmp            0      0.00%     14.20% # Type of FU issued
system.switch_cpus.iq.FU_type_0::FloatCvt            0      0.00%     14.20% # Type of FU issued
system.switch_cpus.iq.FU_type_0::FloatMult            0      0.00%     14.20% # Type of FU issued
system.switch_cpus.iq.FU_type_0::FloatMultAcc            0      0.00%     14.20% # Type of FU issued
system.switch_cpus.iq.FU_type_0::FloatDiv            0      0.00%     14.20% # Type of FU issued
system.switch_cpus.iq.FU_type_0::FloatMisc            0      0.00%     14.20% # Type of FU issued
system.switch_cpus.iq.FU_type_0::FloatSqrt            0      0.00%     14.20% # Type of FU issued
system.switch_cpus.iq.FU_type_0::SimdAdd            0      0.00%     14.20% # Type of FU issued
system.switch_cpus.iq.FU_type_0::SimdAddAcc            0      0.00%     14.20% # Type of FU issued
system.switch_cpus.iq.FU_type_0::SimdAlu        47747      0.21%     14.40% # Type of FU issued
system.switch_cpus.iq.FU_type_0::SimdCmp            0      0.00%     14.40% # Type of FU issued
system.switch_cpus.iq.FU_type_0::SimdCvt            0      0.00%     14.40% # Type of FU issued
system.switch_cpus.iq.FU_type_0::SimdMisc            0      0.00%     14.40% # Type of FU issued
system.switch_cpus.iq.FU_type_0::SimdMult            0      0.00%     14.40% # Type of FU issued
system.switch_cpus.iq.FU_type_0::SimdMultAcc            0      0.00%     14.40% # Type of FU issued
system.switch_cpus.iq.FU_type_0::SimdShift            0      0.00%     14.40% # Type of FU issued
system.switch_cpus.iq.FU_type_0::SimdShiftAcc            0      0.00%     14.40% # Type of FU issued
system.switch_cpus.iq.FU_type_0::SimdDiv            0      0.00%     14.40% # Type of FU issued
system.switch_cpus.iq.FU_type_0::SimdSqrt            0      0.00%     14.40% # Type of FU issued
system.switch_cpus.iq.FU_type_0::SimdFloatAdd      5477005     23.69%     38.09% # Type of FU issued
system.switch_cpus.iq.FU_type_0::SimdFloatAlu            0      0.00%     38.09% # Type of FU issued
system.switch_cpus.iq.FU_type_0::SimdFloatCmp            0      0.00%     38.09% # Type of FU issued
system.switch_cpus.iq.FU_type_0::SimdFloatCvt            0      0.00%     38.09% # Type of FU issued
system.switch_cpus.iq.FU_type_0::SimdFloatDiv        11440      0.05%     38.14% # Type of FU issued
system.switch_cpus.iq.FU_type_0::SimdFloatMisc            0      0.00%     38.14% # Type of FU issued
system.switch_cpus.iq.FU_type_0::SimdFloatMult      4002313     17.31%     55.45% # Type of FU issued
system.switch_cpus.iq.FU_type_0::SimdFloatMultAcc            0      0.00%     55.45% # Type of FU issued
system.switch_cpus.iq.FU_type_0::SimdFloatSqrt            0      0.00%     55.45% # Type of FU issued
system.switch_cpus.iq.FU_type_0::SimdReduceAdd            0      0.00%     55.45% # Type of FU issued
system.switch_cpus.iq.FU_type_0::SimdReduceAlu            0      0.00%     55.45% # Type of FU issued
system.switch_cpus.iq.FU_type_0::SimdReduceCmp            0      0.00%     55.45% # Type of FU issued
system.switch_cpus.iq.FU_type_0::SimdFloatReduceAdd            0      0.00%     55.45% # Type of FU issued
system.switch_cpus.iq.FU_type_0::SimdFloatReduceCmp            0      0.00%     55.45% # Type of FU issued
system.switch_cpus.iq.FU_type_0::SimdAes            0      0.00%     55.45% # Type of FU issued
system.switch_cpus.iq.FU_type_0::SimdAesMix            0      0.00%     55.45% # Type of FU issued
system.switch_cpus.iq.FU_type_0::SimdSha1Hash            0      0.00%     55.45% # Type of FU issued
system.switch_cpus.iq.FU_type_0::SimdSha1Hash2            0      0.00%     55.45% # Type of FU issued
system.switch_cpus.iq.FU_type_0::SimdSha256Hash            0      0.00%     55.45% # Type of FU issued
system.switch_cpus.iq.FU_type_0::SimdSha256Hash2            0      0.00%     55.45% # Type of FU issued
system.switch_cpus.iq.FU_type_0::SimdShaSigma2            0      0.00%     55.45% # Type of FU issued
system.switch_cpus.iq.FU_type_0::SimdShaSigma3            0      0.00%     55.45% # Type of FU issued
system.switch_cpus.iq.FU_type_0::SimdPredAlu            0      0.00%     55.45% # Type of FU issued
system.switch_cpus.iq.FU_type_0::MemRead       759250      3.28%     58.74% # Type of FU issued
system.switch_cpus.iq.FU_type_0::MemWrite        94610      0.41%     59.15% # Type of FU issued
system.switch_cpus.iq.FU_type_0::FloatMemRead      7172957     31.03%     90.17% # Type of FU issued
system.switch_cpus.iq.FU_type_0::FloatMemWrite      2272451      9.83%    100.00% # Type of FU issued
system.switch_cpus.iq.FU_type_0::IprAccess            0      0.00%    100.00% # Type of FU issued
system.switch_cpus.iq.FU_type_0::InstPrefetch            0      0.00%    100.00% # Type of FU issued
system.switch_cpus.iq.FU_type_0::total       23119650                       # Type of FU issued
system.switch_cpus.iq.fp_alu_accesses        22500168                       # Number of floating point alu accesses
system.switch_cpus.iq.fp_inst_queue_reads     44061644                       # Number of floating instruction queue reads
system.switch_cpus.iq.fp_inst_queue_wakeup_accesses     21442510                       # Number of floating instruction queue wakeup accesses
system.switch_cpus.iq.fp_inst_queue_writes     21671089                       # Number of floating instruction queue writes
system.switch_cpus.iq.fu_busy_cnt             1038964                       # FU busy when requested
system.switch_cpus.iq.fu_busy_rate           0.044939                       # FU busy rate (busy events/executed inst)
system.switch_cpus.iq.fu_full::No_OpClass            0      0.00%      0.00% # attempts to use FU when none available
system.switch_cpus.iq.fu_full::IntAlu             409      0.04%      0.04% # attempts to use FU when none available
system.switch_cpus.iq.fu_full::IntMult              0      0.00%      0.04% # attempts to use FU when none available
system.switch_cpus.iq.fu_full::IntDiv               0      0.00%      0.04% # attempts to use FU when none available
system.switch_cpus.iq.fu_full::FloatAdd             0      0.00%      0.04% # attempts to use FU when none available
system.switch_cpus.iq.fu_full::FloatCmp             0      0.00%      0.04% # attempts to use FU when none available
system.switch_cpus.iq.fu_full::FloatCvt             0      0.00%      0.04% # attempts to use FU when none available
system.switch_cpus.iq.fu_full::FloatMult            0      0.00%      0.04% # attempts to use FU when none available
system.switch_cpus.iq.fu_full::FloatMultAcc            0      0.00%      0.04% # attempts to use FU when none available
system.switch_cpus.iq.fu_full::FloatDiv             0      0.00%      0.04% # attempts to use FU when none available
system.switch_cpus.iq.fu_full::FloatMisc            0      0.00%      0.04% # attempts to use FU when none available
system.switch_cpus.iq.fu_full::FloatSqrt            0      0.00%      0.04% # attempts to use FU when none available
system.switch_cpus.iq.fu_full::SimdAdd              0      0.00%      0.04% # attempts to use FU when none available
system.switch_cpus.iq.fu_full::SimdAddAcc            0      0.00%      0.04% # attempts to use FU when none available
system.switch_cpus.iq.fu_full::SimdAlu              0      0.00%      0.04% # attempts to use FU when none available
system.switch_cpus.iq.fu_full::SimdCmp              0      0.00%      0.04% # attempts to use FU when none available
system.switch_cpus.iq.fu_full::SimdCvt              0      0.00%      0.04% # attempts to use FU when none available
system.switch_cpus.iq.fu_full::SimdMisc             0      0.00%      0.04% # attempts to use FU when none available
system.switch_cpus.iq.fu_full::SimdMult             0      0.00%      0.04% # attempts to use FU when none available
system.switch_cpus.iq.fu_full::SimdMultAcc            0      0.00%      0.04% # attempts to use FU when none available
system.switch_cpus.iq.fu_full::SimdShift            0      0.00%      0.04% # attempts to use FU when none available
system.switch_cpus.iq.fu_full::SimdShiftAcc            0      0.00%      0.04% # attempts to use FU when none available
system.switch_cpus.iq.fu_full::SimdDiv              0      0.00%      0.04% # attempts to use FU when none available
system.switch_cpus.iq.fu_full::SimdSqrt             0      0.00%      0.04% # attempts to use FU when none available
system.switch_cpus.iq.fu_full::SimdFloatAdd       122359     11.78%     11.82% # attempts to use FU when none available
system.switch_cpus.iq.fu_full::SimdFloatAlu            0      0.00%     11.82% # attempts to use FU when none available
system.switch_cpus.iq.fu_full::SimdFloatCmp            0      0.00%     11.82% # attempts to use FU when none available
system.switch_cpus.iq.fu_full::SimdFloatCvt            0      0.00%     11.82% # attempts to use FU when none available
system.switch_cpus.iq.fu_full::SimdFloatDiv            0      0.00%     11.82% # attempts to use FU when none available
system.switch_cpus.iq.fu_full::SimdFloatMisc            0      0.00%     11.82% # attempts to use FU when none available
system.switch_cpus.iq.fu_full::SimdFloatMult       266405     25.64%     37.46% # attempts to use FU when none available
system.switch_cpus.iq.fu_full::SimdFloatMultAcc            0      0.00%     37.46% # attempts to use FU when none available
system.switch_cpus.iq.fu_full::SimdFloatSqrt            0      0.00%     37.46% # attempts to use FU when none available
system.switch_cpus.iq.fu_full::SimdReduceAdd            0      0.00%     37.46% # attempts to use FU when none available
system.switch_cpus.iq.fu_full::SimdReduceAlu            0      0.00%     37.46% # attempts to use FU when none available
system.switch_cpus.iq.fu_full::SimdReduceCmp            0      0.00%     37.46% # attempts to use FU when none available
system.switch_cpus.iq.fu_full::SimdFloatReduceAdd            0      0.00%     37.46% # attempts to use FU when none available
system.switch_cpus.iq.fu_full::SimdFloatReduceCmp            0      0.00%     37.46% # attempts to use FU when none available
system.switch_cpus.iq.fu_full::SimdAes              0      0.00%     37.46% # attempts to use FU when none available
system.switch_cpus.iq.fu_full::SimdAesMix            0      0.00%     37.46% # attempts to use FU when none available
system.switch_cpus.iq.fu_full::SimdSha1Hash            0      0.00%     37.46% # attempts to use FU when none available
system.switch_cpus.iq.fu_full::SimdSha1Hash2            0      0.00%     37.46% # attempts to use FU when none available
system.switch_cpus.iq.fu_full::SimdSha256Hash            0      0.00%     37.46% # attempts to use FU when none available
system.switch_cpus.iq.fu_full::SimdSha256Hash2            0      0.00%     37.46% # attempts to use FU when none available
system.switch_cpus.iq.fu_full::SimdShaSigma2            0      0.00%     37.46% # attempts to use FU when none available
system.switch_cpus.iq.fu_full::SimdShaSigma3            0      0.00%     37.46% # attempts to use FU when none available
system.switch_cpus.iq.fu_full::SimdPredAlu            0      0.00%     37.46% # attempts to use FU when none available
system.switch_cpus.iq.fu_full::MemRead          87601      8.43%     45.89% # attempts to use FU when none available
system.switch_cpus.iq.fu_full::MemWrite         11676      1.12%     47.01% # attempts to use FU when none available
system.switch_cpus.iq.fu_full::FloatMemRead       495630     47.70%     94.72% # attempts to use FU when none available
system.switch_cpus.iq.fu_full::FloatMemWrite        54884      5.28%    100.00% # attempts to use FU when none available
system.switch_cpus.iq.fu_full::IprAccess            0      0.00%    100.00% # attempts to use FU when none available
system.switch_cpus.iq.fu_full::InstPrefetch            0      0.00%    100.00% # attempts to use FU when none available
system.switch_cpus.iq.int_alu_accesses        1617305                       # Number of integer alu accesses
system.switch_cpus.iq.int_inst_queue_reads     16252108                       # Number of integer instruction queue reads
system.switch_cpus.iq.int_inst_queue_wakeup_accesses      1475830                       # Number of integer instruction queue wakeup accesses
system.switch_cpus.iq.int_inst_queue_writes      1936535                       # Number of integer instruction queue writes
system.switch_cpus.iq.iqInstsAdded           23038478                       # Number of instructions added to the IQ (excludes non-spec)
system.switch_cpus.iq.iqInstsIssued          23119650                       # Number of instructions issued
system.switch_cpus.iq.iqNonSpecInstsAdded         3859                       # Number of non-speculative instructions added to the IQ
system.switch_cpus.iq.iqSquashedInstsExamined       565048                       # Number of squashed instructions iterated over during squash; mainly for profiling
system.switch_cpus.iq.iqSquashedInstsIssued          669                       # Number of squashed instructions issued
system.switch_cpus.iq.iqSquashedNonSpecRemoved         3539                       # Number of squashed non-spec instructions that were removed
system.switch_cpus.iq.iqSquashedOperandsExamined       279412                       # Number of squashed operands that are examined and possibly removed from graph
system.switch_cpus.iq.issued_per_cycle::samples     13034821                       # Number of insts issued each cycle
system.switch_cpus.iq.issued_per_cycle::mean     1.773684                       # Number of insts issued each cycle
system.switch_cpus.iq.issued_per_cycle::stdev     2.532842                       # Number of insts issued each cycle
system.switch_cpus.iq.issued_per_cycle::underflows            0      0.00%      0.00% # Number of insts issued each cycle
system.switch_cpus.iq.issued_per_cycle::0      7645770     58.66%     58.66% # Number of insts issued each cycle
system.switch_cpus.iq.issued_per_cycle::1       691347      5.30%     63.96% # Number of insts issued each cycle
system.switch_cpus.iq.issued_per_cycle::2       716940      5.50%     69.46% # Number of insts issued each cycle
system.switch_cpus.iq.issued_per_cycle::3       631457      4.84%     74.30% # Number of insts issued each cycle
system.switch_cpus.iq.issued_per_cycle::4       888360      6.82%     81.12% # Number of insts issued each cycle
system.switch_cpus.iq.issued_per_cycle::5       704818      5.41%     86.53% # Number of insts issued each cycle
system.switch_cpus.iq.issued_per_cycle::6       779022      5.98%     92.50% # Number of insts issued each cycle
system.switch_cpus.iq.issued_per_cycle::7       468466      3.59%     96.10% # Number of insts issued each cycle
system.switch_cpus.iq.issued_per_cycle::8       508641      3.90%    100.00% # Number of insts issued each cycle
system.switch_cpus.iq.issued_per_cycle::overflows            0      0.00%    100.00% # Number of insts issued each cycle
system.switch_cpus.iq.issued_per_cycle::min_value            0                       # Number of insts issued each cycle
system.switch_cpus.iq.issued_per_cycle::max_value            8                       # Number of insts issued each cycle
system.switch_cpus.iq.issued_per_cycle::total     13034821                       # Number of insts issued each cycle
system.switch_cpus.iq.rate                   1.769056                       # Inst issue rate
system.switch_cpus.iq.vec_alu_accesses              0                       # Number of vector alu accesses
system.switch_cpus.iq.vec_inst_queue_reads            0                       # Number of vector instruction queue reads
system.switch_cpus.iq.vec_inst_queue_wakeup_accesses            0                       # Number of vector instruction queue wakeup accesses
system.switch_cpus.iq.vec_inst_queue_writes            0                       # Number of vector instruction queue writes
system.switch_cpus.itb.rdAccesses                   0                       # TLB accesses on read requests
system.switch_cpus.itb.rdMisses                     0                       # TLB misses on read requests
system.switch_cpus.itb.wrAccesses             1083994                       # TLB accesses on write requests
system.switch_cpus.itb.wrMisses                    10                       # TLB misses on write requests
system.switch_cpus.memDep0.conflictingLoads        22543                       # Number of conflicting loads.
system.switch_cpus.memDep0.conflictingStores        94466                       # Number of conflicting stores.
system.switch_cpus.memDep0.insertedLoads      7789696                       # Number of loads inserted to the mem dependence unit.
system.switch_cpus.memDep0.insertedStores      2418857                       # Number of stores inserted to the mem dependence unit.
system.switch_cpus.misc_regfile_reads        10604900                       # number of misc regfile reads
system.switch_cpus.misc_regfile_writes              1                       # number of misc regfile writes
system.switch_cpus.numCycles                 13068922                       # number of cpu cycles simulated
system.switch_cpus.numWorkItemsCompleted            0                       # number of work items this cpu completed
system.switch_cpus.numWorkItemsStarted              0                       # number of work items this cpu started
system.switch_cpus.rename.BlockCycles         3017707                       # Number of cycles rename is blocking
system.switch_cpus.rename.CommittedMaps      20390800                       # Number of HB maps that are committed
system.switch_cpus.rename.IQFullEvents         123327                       # Number of times rename has blocked due to IQ full
system.switch_cpus.rename.IdleCycles          1023196                       # Number of cycles rename is idle
system.switch_cpus.rename.LQFullEvents        2224018                       # Number of times rename has blocked due to LQ full
system.switch_cpus.rename.ROBFullEvents         40789                       # Number of times rename has blocked due to ROB full
system.switch_cpus.rename.RenameLookups      67935275                       # Number of register rename lookups that rename has made
system.switch_cpus.rename.RenamedInsts       23063769                       # Number of instructions processed by rename
system.switch_cpus.rename.RenamedOperands     20905469                       # Number of destination operands rename has renamed
system.switch_cpus.rename.RunCycles           2804507                       # Number of cycles rename is running
system.switch_cpus.rename.SQFullEvents        3734486                       # Number of times rename has blocked due to SQ full
system.switch_cpus.rename.SquashCycles           6081                       # Number of cycles rename is squashing
system.switch_cpus.rename.UnblockCycles       6183210                       # Number of cycles rename is unblocking
system.switch_cpus.rename.UndoneMaps           514589                       # Number of HB maps that are undone due to squashing
system.switch_cpus.rename.fp_rename_lookups     36039134                       # Number of floating rename lookups
system.switch_cpus.rename.int_rename_lookups     21167329                       # Number of integer rename lookups
system.switch_cpus.rename.serializeStallCycles            0                       # count of cycles rename stalled for serializing inst
system.switch_cpus.rename.serializingInsts            0                       # count of serializing insts renamed
system.switch_cpus.rename.skidInsts           3839773                       # count of insts added to the skid buffer
system.switch_cpus.rename.tempSerializingInsts            0                       # count of temporary serializing insts renamed
system.switch_cpus.rob.rob_reads             34296404                       # The number of ROB reads
system.switch_cpus.rob.rob_writes            45953911                       # The number of ROB writes
system.switch_cpus.timesIdled                     338                       # Number of times that the entire CPU went into an idle state and unscheduled itself
system.tol2bus.snoop_filter.hit_multi_requests            0                       # Number of requests hitting in the snoop filter with multiple (>1) holders of the requested data.
system.tol2bus.snoop_filter.hit_multi_snoops            0                       # Number of snoops hitting in the snoop filter with multiple (>1) holders of the requested data.
system.tol2bus.snoop_filter.hit_single_requests       113423                       # Number of requests hitting in the snoop filter with a single holder of the requested data.
system.tol2bus.snoop_filter.hit_single_snoops         1977                       # Number of snoops hitting in the snoop filter with a single holder of the requested data.
system.tol2bus.snoop_filter.tot_requests       228147                       # Total number of requests made to the snoop filter.
system.tol2bus.snoop_filter.tot_snoops           1977                       # Total number of snoops made to the snoop filter.
system.membus.pwrStateResidencyTicks::UNDEFINED 572573847725000                       # Cumulative time (in ticks) in various power states
system.membus.trans_dist::ReadResp              78980                       # Transaction distribution
system.membus.trans_dist::WritebackDirty        28835                       # Transaction distribution
system.membus.trans_dist::CleanEvict            63176                       # Transaction distribution
system.membus.trans_dist::ReadExReq             17424                       # Transaction distribution
system.membus.trans_dist::ReadExResp            17424                       # Transaction distribution
system.membus.trans_dist::ReadSharedReq         78980                       # Transaction distribution
system.membus.pkt_count_system.l2.mem_side::system.mem_ctrls.port       284819                       # Packet count per connected master and slave (bytes)
system.membus.pkt_count_system.l2.mem_side::total       284819                       # Packet count per connected master and slave (bytes)
system.membus.pkt_count::total                 284819                       # Packet count per connected master and slave (bytes)
system.membus.pkt_size_system.l2.mem_side::system.mem_ctrls.port      8015296                       # Cumulative packet size per connected master and slave (bytes)
system.membus.pkt_size_system.l2.mem_side::total      8015296                       # Cumulative packet size per connected master and slave (bytes)
system.membus.pkt_size::total                 8015296                       # Cumulative packet size per connected master and slave (bytes)
system.membus.snoops                                0                       # Total snoops (count)
system.membus.snoopTraffic                          0                       # Total snoop traffic (bytes)
system.membus.snoop_fanout::samples             96404                       # Request fanout histogram
system.membus.snoop_fanout::mean                    0                       # Request fanout histogram
system.membus.snoop_fanout::stdev                   0                       # Request fanout histogram
system.membus.snoop_fanout::underflows              0      0.00%      0.00% # Request fanout histogram
system.membus.snoop_fanout::0                   96404    100.00%    100.00% # Request fanout histogram
system.membus.snoop_fanout::1                       0      0.00%    100.00% # Request fanout histogram
system.membus.snoop_fanout::overflows               0      0.00%    100.00% # Request fanout histogram
system.membus.snoop_fanout::min_value               0                       # Request fanout histogram
system.membus.snoop_fanout::max_value               0                       # Request fanout histogram
system.membus.snoop_fanout::total               96404                       # Request fanout histogram
system.membus.reqLayer2.occupancy           318223316                       # Layer occupancy (ticks)
system.membus.reqLayer2.utilization               4.9                       # Layer utilization (%)
system.membus.respLayer1.occupancy          516713558                       # Layer occupancy (ticks)
system.membus.respLayer1.utilization              7.9                       # Layer utilization (%)
system.switch_cpus.pwrStateResidencyTicks::OFF   6534471250                       # Cumulative time (in ticks) in various power states
system.switch_cpus.dtb.walker.pwrStateResidencyTicks::UNDEFINED 572573847725000                       # Cumulative time (in ticks) in various power states
system.switch_cpus.itb.walker.pwrStateResidencyTicks::UNDEFINED 572573847725000                       # Cumulative time (in ticks) in various power states
system.tol2bus.pwrStateResidencyTicks::UNDEFINED 572573847725000                       # Cumulative time (in ticks) in various power states
system.tol2bus.trans_dist::ReadResp             83051                       # Transaction distribution
system.tol2bus.trans_dist::WritebackDirty        65163                       # Transaction distribution
system.tol2bus.trans_dist::WritebackClean          116                       # Transaction distribution
system.tol2bus.trans_dist::CleanEvict          141212                       # Transaction distribution
system.tol2bus.trans_dist::HardPFReq            56464                       # Transaction distribution
system.tol2bus.trans_dist::ReadExReq            31673                       # Transaction distribution
system.tol2bus.trans_dist::ReadExResp           31673                       # Transaction distribution
system.tol2bus.trans_dist::ReadCleanReq           393                       # Transaction distribution
system.tol2bus.trans_dist::ReadSharedReq        82658                       # Transaction distribution
system.tol2bus.pkt_count_system.cpu.icache.mem_side::system.l2.cpu_side          902                       # Packet count per connected master and slave (bytes)
system.tol2bus.pkt_count_system.cpu.dcache.mem_side::system.l2.cpu_side       341969                       # Packet count per connected master and slave (bytes)
system.tol2bus.pkt_count::total                342871                       # Packet count per connected master and slave (bytes)
system.tol2bus.pkt_size_system.cpu.icache.mem_side::system.l2.cpu_side        32576                       # Cumulative packet size per connected master and slave (bytes)
system.tol2bus.pkt_size_system.cpu.dcache.mem_side::system.l2.cpu_side      9642176                       # Cumulative packet size per connected master and slave (bytes)
system.tol2bus.pkt_size::total                9674752                       # Cumulative packet size per connected master and slave (bytes)
system.tol2bus.snoops                          149532                       # Total snoops (count)
system.tol2bus.snoopTraffic                   1845440                       # Total snoop traffic (bytes)
system.tol2bus.snoop_fanout::samples           264256                       # Request fanout histogram
system.tol2bus.snoop_fanout::mean            0.007481                       # Request fanout histogram
system.tol2bus.snoop_fanout::stdev           0.086171                       # Request fanout histogram
system.tol2bus.snoop_fanout::underflows             0      0.00%      0.00% # Request fanout histogram
system.tol2bus.snoop_fanout::0                 262279     99.25%     99.25% # Request fanout histogram
system.tol2bus.snoop_fanout::1                   1977      0.75%    100.00% # Request fanout histogram
system.tol2bus.snoop_fanout::2                      0      0.00%    100.00% # Request fanout histogram
system.tol2bus.snoop_fanout::3                      0      0.00%    100.00% # Request fanout histogram
system.tol2bus.snoop_fanout::4                      0      0.00%    100.00% # Request fanout histogram
system.tol2bus.snoop_fanout::overflows              0      0.00%    100.00% # Request fanout histogram
system.tol2bus.snoop_fanout::min_value              0                       # Request fanout histogram
system.tol2bus.snoop_fanout::max_value              1                       # Request fanout histogram
system.tol2bus.snoop_fanout::total             264256                       # Request fanout histogram
system.tol2bus.reqLayer0.occupancy          150515000                       # Layer occupancy (ticks)
system.tol2bus.reqLayer0.utilization              2.3                       # Layer utilization (%)
system.tol2bus.respLayer1.occupancy         171492000                       # Layer occupancy (ticks)
system.tol2bus.respLayer1.utilization             2.6                       # Layer utilization (%)
system.tol2bus.respLayer0.occupancy            586500                       # Layer occupancy (ticks)
system.tol2bus.respLayer0.utilization             0.0                       # Layer utilization (%)
system.voltage_domain.voltage                       1                       # Voltage in Volts
system.clk_domain.clock                          1000                       # Clock period in ticks
system.l2.pwrStateResidencyTicks::UNDEFINED 572573847725000                       # Cumulative time (in ticks) in various power states
system.l2.demand_hits::.switch_cpus.inst           31                       # number of demand (read+write) hits
system.l2.demand_hits::.switch_cpus.data        50135                       # number of demand (read+write) hits
system.l2.demand_hits::total                    50166                       # number of demand (read+write) hits
system.l2.overall_hits::.switch_cpus.inst           31                       # number of overall hits
system.l2.overall_hits::.switch_cpus.data        50135                       # number of overall hits
system.l2.overall_hits::total                   50166                       # number of overall hits
system.l2.demand_misses::.cpu.inst                  2                       # number of demand (read+write) misses
system.l2.demand_misses::.cpu.data                  3                       # number of demand (read+write) misses
system.l2.demand_misses::.switch_cpus.inst          360                       # number of demand (read+write) misses
system.l2.demand_misses::.switch_cpus.data        64193                       # number of demand (read+write) misses
system.l2.demand_misses::total                  64558                       # number of demand (read+write) misses
system.l2.overall_misses::.cpu.inst                 2                       # number of overall misses
system.l2.overall_misses::.cpu.data                 3                       # number of overall misses
system.l2.overall_misses::.switch_cpus.inst          360                       # number of overall misses
system.l2.overall_misses::.switch_cpus.data        64193                       # number of overall misses
system.l2.overall_misses::total                 64558                       # number of overall misses
system.l2.demand_miss_latency::.switch_cpus.inst     28779500                       # number of demand (read+write) miss cycles
system.l2.demand_miss_latency::.switch_cpus.data   6621967500                       # number of demand (read+write) miss cycles
system.l2.demand_miss_latency::total       6650747000                       # number of demand (read+write) miss cycles
system.l2.overall_miss_latency::.switch_cpus.inst     28779500                       # number of overall miss cycles
system.l2.overall_miss_latency::.switch_cpus.data   6621967500                       # number of overall miss cycles
system.l2.overall_miss_latency::total      6650747000                       # number of overall miss cycles
system.l2.demand_accesses::.cpu.inst                2                       # number of demand (read+write) accesses
system.l2.demand_accesses::.cpu.data                3                       # number of demand (read+write) accesses
system.l2.demand_accesses::.switch_cpus.inst          391                       # number of demand (read+write) accesses
system.l2.demand_accesses::.switch_cpus.data       114328                       # number of demand (read+write) accesses
system.l2.demand_accesses::total               114724                       # number of demand (read+write) accesses
system.l2.overall_accesses::.cpu.inst               2                       # number of overall (read+write) accesses
system.l2.overall_accesses::.cpu.data               3                       # number of overall (read+write) accesses
system.l2.overall_accesses::.switch_cpus.inst          391                       # number of overall (read+write) accesses
system.l2.overall_accesses::.switch_cpus.data       114328                       # number of overall (read+write) accesses
system.l2.overall_accesses::total              114724                       # number of overall (read+write) accesses
system.l2.demand_miss_rate::.cpu.inst               1                       # miss rate for demand accesses
system.l2.demand_miss_rate::.cpu.data               1                       # miss rate for demand accesses
system.l2.demand_miss_rate::.switch_cpus.inst     0.920716                       # miss rate for demand accesses
system.l2.demand_miss_rate::.switch_cpus.data     0.561481                       # miss rate for demand accesses
system.l2.demand_miss_rate::total            0.562724                       # miss rate for demand accesses
system.l2.overall_miss_rate::.cpu.inst              1                       # miss rate for overall accesses
system.l2.overall_miss_rate::.cpu.data              1                       # miss rate for overall accesses
system.l2.overall_miss_rate::.switch_cpus.inst     0.920716                       # miss rate for overall accesses
system.l2.overall_miss_rate::.switch_cpus.data     0.561481                       # miss rate for overall accesses
system.l2.overall_miss_rate::total           0.562724                       # miss rate for overall accesses
system.l2.demand_avg_miss_latency::.switch_cpus.inst 79943.055556                       # average overall miss latency
system.l2.demand_avg_miss_latency::.switch_cpus.data 103157.158880                       # average overall miss latency
system.l2.demand_avg_miss_latency::total 103019.718703                       # average overall miss latency
system.l2.overall_avg_miss_latency::.switch_cpus.inst 79943.055556                       # average overall miss latency
system.l2.overall_avg_miss_latency::.switch_cpus.data 103157.158880                       # average overall miss latency
system.l2.overall_avg_miss_latency::total 103019.718703                       # average overall miss latency
system.l2.blocked_cycles::no_mshrs                  0                       # number of cycles access was blocked
system.l2.blocked_cycles::no_targets                0                       # number of cycles access was blocked
system.l2.blocked::no_mshrs                         0                       # number of cycles access was blocked
system.l2.blocked::no_targets                       0                       # number of cycles access was blocked
system.l2.avg_blocked_cycles::no_mshrs            nan                       # average number of cycles each access was blocked
system.l2.avg_blocked_cycles::no_targets          nan                       # average number of cycles each access was blocked
system.l2.unused_prefetches                       332                       # number of HardPF blocks evicted w/o reference
system.l2.writebacks::.writebacks               28835                       # number of writebacks
system.l2.writebacks::total                     28835                       # number of writebacks
system.l2.demand_mshr_misses::.switch_cpus.inst          360                       # number of demand (read+write) MSHR misses
system.l2.demand_mshr_misses::.switch_cpus.data        64193                       # number of demand (read+write) MSHR misses
system.l2.demand_mshr_misses::total             64553                       # number of demand (read+write) MSHR misses
system.l2.overall_mshr_misses::.l2.prefetcher        31846                       # number of overall MSHR misses
system.l2.overall_mshr_misses::.switch_cpus.inst          360                       # number of overall MSHR misses
system.l2.overall_mshr_misses::.switch_cpus.data        64193                       # number of overall MSHR misses
system.l2.overall_mshr_misses::total            96399                       # number of overall MSHR misses
system.l2.demand_mshr_miss_latency::.switch_cpus.inst     25179500                       # number of demand (read+write) MSHR miss cycles
system.l2.demand_mshr_miss_latency::.switch_cpus.data   5980037500                       # number of demand (read+write) MSHR miss cycles
system.l2.demand_mshr_miss_latency::total   6005217000                       # number of demand (read+write) MSHR miss cycles
system.l2.overall_mshr_miss_latency::.l2.prefetcher   2807549927                       # number of overall MSHR miss cycles
system.l2.overall_mshr_miss_latency::.switch_cpus.inst     25179500                       # number of overall MSHR miss cycles
system.l2.overall_mshr_miss_latency::.switch_cpus.data   5980037500                       # number of overall MSHR miss cycles
system.l2.overall_mshr_miss_latency::total   8812766927                       # number of overall MSHR miss cycles
system.l2.demand_mshr_miss_rate::.switch_cpus.inst     0.920716                       # mshr miss rate for demand accesses
system.l2.demand_mshr_miss_rate::.switch_cpus.data     0.561481                       # mshr miss rate for demand accesses
system.l2.demand_mshr_miss_rate::total       0.562681                       # mshr miss rate for demand accesses
system.l2.overall_mshr_miss_rate::.l2.prefetcher          inf                       # mshr miss rate for overall accesses
system.l2.overall_mshr_miss_rate::.switch_cpus.inst     0.920716                       # mshr miss rate for overall accesses
system.l2.overall_mshr_miss_rate::.switch_cpus.data     0.561481                       # mshr miss rate for overall accesses
system.l2.overall_mshr_miss_rate::total      0.840269                       # mshr miss rate for overall accesses
system.l2.demand_avg_mshr_miss_latency::.switch_cpus.inst 69943.055556                       # average overall mshr miss latency
system.l2.demand_avg_mshr_miss_latency::.switch_cpus.data 93157.158880                       # average overall mshr miss latency
system.l2.demand_avg_mshr_miss_latency::total 93027.698170                       # average overall mshr miss latency
system.l2.overall_avg_mshr_miss_latency::.l2.prefetcher 88160.206211                       # average overall mshr miss latency
system.l2.overall_avg_mshr_miss_latency::.switch_cpus.inst 69943.055556                       # average overall mshr miss latency
system.l2.overall_avg_mshr_miss_latency::.switch_cpus.data 93157.158880                       # average overall mshr miss latency
system.l2.overall_avg_mshr_miss_latency::total 91419.692393                       # average overall mshr miss latency
system.l2.replacements                          93068                       # number of replacements
system.l2.WritebackDirty_hits::.writebacks        36328                       # number of WritebackDirty hits
system.l2.WritebackDirty_hits::total            36328                       # number of WritebackDirty hits
system.l2.WritebackDirty_accesses::.writebacks        36328                       # number of WritebackDirty accesses(hits+misses)
system.l2.WritebackDirty_accesses::total        36328                       # number of WritebackDirty accesses(hits+misses)
system.l2.WritebackClean_hits::.writebacks          116                       # number of WritebackClean hits
system.l2.WritebackClean_hits::total              116                       # number of WritebackClean hits
system.l2.WritebackClean_accesses::.writebacks          116                       # number of WritebackClean accesses(hits+misses)
system.l2.WritebackClean_accesses::total          116                       # number of WritebackClean accesses(hits+misses)
system.l2.CleanEvict_mshr_misses::.writebacks          920                       # number of CleanEvict MSHR misses
system.l2.CleanEvict_mshr_misses::total           920                       # number of CleanEvict MSHR misses
system.l2.CleanEvict_mshr_miss_rate::.writebacks          inf                       # mshr miss rate for CleanEvict accesses
system.l2.CleanEvict_mshr_miss_rate::total          inf                       # mshr miss rate for CleanEvict accesses
system.l2.HardPFReq_mshr_misses::.l2.prefetcher        31846                       # number of HardPFReq MSHR misses
system.l2.HardPFReq_mshr_misses::total          31846                       # number of HardPFReq MSHR misses
system.l2.HardPFReq_mshr_miss_latency::.l2.prefetcher   2807549927                       # number of HardPFReq MSHR miss cycles
system.l2.HardPFReq_mshr_miss_latency::total   2807549927                       # number of HardPFReq MSHR miss cycles
system.l2.HardPFReq_mshr_miss_rate::.l2.prefetcher          inf                       # mshr miss rate for HardPFReq accesses
system.l2.HardPFReq_mshr_miss_rate::total          inf                       # mshr miss rate for HardPFReq accesses
system.l2.HardPFReq_avg_mshr_miss_latency::.l2.prefetcher 88160.206211                       # average HardPFReq mshr miss latency
system.l2.HardPFReq_avg_mshr_miss_latency::total 88160.206211                       # average HardPFReq mshr miss latency
system.l2.ReadExReq_hits::.switch_cpus.data        14249                       # number of ReadExReq hits
system.l2.ReadExReq_hits::total                 14249                       # number of ReadExReq hits
system.l2.ReadExReq_misses::.cpu.data               1                       # number of ReadExReq misses
system.l2.ReadExReq_misses::.switch_cpus.data        17423                       # number of ReadExReq misses
system.l2.ReadExReq_misses::total               17424                       # number of ReadExReq misses
system.l2.ReadExReq_miss_latency::.switch_cpus.data   1740970000                       # number of ReadExReq miss cycles
system.l2.ReadExReq_miss_latency::total    1740970000                       # number of ReadExReq miss cycles
system.l2.ReadExReq_accesses::.cpu.data             1                       # number of ReadExReq accesses(hits+misses)
system.l2.ReadExReq_accesses::.switch_cpus.data        31672                       # number of ReadExReq accesses(hits+misses)
system.l2.ReadExReq_accesses::total             31673                       # number of ReadExReq accesses(hits+misses)
system.l2.ReadExReq_miss_rate::.cpu.data            1                       # miss rate for ReadExReq accesses
system.l2.ReadExReq_miss_rate::.switch_cpus.data     0.550107                       # miss rate for ReadExReq accesses
system.l2.ReadExReq_miss_rate::total         0.550122                       # miss rate for ReadExReq accesses
system.l2.ReadExReq_avg_miss_latency::.switch_cpus.data 99923.664122                       # average ReadExReq miss latency
system.l2.ReadExReq_avg_miss_latency::total 99917.929293                       # average ReadExReq miss latency
system.l2.ReadExReq_mshr_misses::.switch_cpus.data        17423                       # number of ReadExReq MSHR misses
system.l2.ReadExReq_mshr_misses::total          17423                       # number of ReadExReq MSHR misses
system.l2.ReadExReq_mshr_miss_latency::.switch_cpus.data   1566740000                       # number of ReadExReq MSHR miss cycles
[...]
system.cpu.dtb_walker_cache.pwrStateResidencyTicks::UNDEFINED 572593415461000                       # Cumulative time (in ticks) in various power states
system.cpu.dtb_walker_cache.blocked_cycles::no_mshrs            0                       # number of cycles access was blocked
system.cpu.dtb_walker_cache.blocked_cycles::no_targets            0                       # number of cycles access was blocked
system.cpu.dtb_walker_cache.blocked::no_mshrs            0                       # number of cycles access was blocked
system.cpu.dtb_walker_cache.blocked::no_targets            0                       # number of cycles access was blocked
system.cpu.dtb_walker_cache.avg_blocked_cycles::no_mshrs          nan                       # average number of cycles each access was blocked
system.cpu.dtb_walker_cache.avg_blocked_cycles::no_targets          nan                       # average number of cycles each access was blocked
system.cpu.dtb_walker_cache.replacements            0                       # number of replacements
system.cpu.dtb_walker_cache.tags.pwrStateResidencyTicks::UNDEFINED 572593415461000                       # Cumulative time (in ticks) in various power states
system.cpu.dtb_walker_cache.tags.tagsinuse            0                       # Cycle average of tags in use
system.cpu.dtb_walker_cache.tags.total_refs            0                       # Total number of references to valid blocks.
system.cpu.dtb_walker_cache.tags.sampled_refs            0                       # Sample count of references to valid blocks.
system.cpu.dtb_walker_cache.tags.avg_refs          nan                       # Average number of references to valid blocks.
system.cpu.dtb_walker_cache.tags.warmup_cycle            0                       # Cycle when the warmup percentage was hit.
system.cpu.dtb_walker_cache.tags.tag_accesses            0                       # Number of tag accesses
system.cpu.dtb_walker_cache.tags.data_accesses            0                       # Number of data accesses
system.cpu.dcache.pwrStateResidencyTicks::UNDEFINED 572593415461000                       # Cumulative time (in ticks) in various power states
system.cpu.dcache.demand_hits::.cpu.data            3                       # number of demand (read+write) hits
system.cpu.dcache.demand_hits::.switch_cpus.data     35432445                       # number of demand (read+write) hits
system.cpu.dcache.demand_hits::total         35432448                       # number of demand (read+write) hits
system.cpu.dcache.overall_hits::.cpu.data            3                       # number of overall hits
system.cpu.dcache.overall_hits::.switch_cpus.data     35487882                       # number of overall hits
system.cpu.dcache.overall_hits::total        35487885                       # number of overall hits
system.cpu.dcache.demand_misses::.cpu.data            3                       # number of demand (read+write) misses
system.cpu.dcache.demand_misses::.switch_cpus.data       845039                       # number of demand (read+write) misses
system.cpu.dcache.demand_misses::total         845042                       # number of demand (read+write) misses
system.cpu.dcache.overall_misses::.cpu.data            3                       # number of overall misses
system.cpu.dcache.overall_misses::.switch_cpus.data       858802                       # number of overall misses
system.cpu.dcache.overall_misses::total        858805                       # number of overall misses
system.cpu.dcache.demand_miss_latency::.switch_cpus.data  48242982948                       # number of demand (read+write) miss cycles
system.cpu.dcache.demand_miss_latency::total  48242982948                       # number of demand (read+write) miss cycles
system.cpu.dcache.overall_miss_latency::.switch_cpus.data  48242982948                       # number of overall miss cycles
system.cpu.dcache.overall_miss_latency::total  48242982948                       # number of overall miss cycles
system.cpu.dcache.demand_accesses::.cpu.data            6                       # number of demand (read+write) accesses
system.cpu.dcache.demand_accesses::.switch_cpus.data     36277484                       # number of demand (read+write) accesses
system.cpu.dcache.demand_accesses::total     36277490                       # number of demand (read+write) accesses
system.cpu.dcache.overall_accesses::.cpu.data            6                       # number of overall (read+write) accesses
system.cpu.dcache.overall_accesses::.switch_cpus.data     36346684                       # number of overall (read+write) accesses
system.cpu.dcache.overall_accesses::total     36346690                       # number of overall (read+write) accesses
system.cpu.dcache.demand_miss_rate::.cpu.data     0.500000                       # miss rate for demand accesses
system.cpu.dcache.demand_miss_rate::.switch_cpus.data     0.023294                       # miss rate for demand accesses
system.cpu.dcache.demand_miss_rate::total     0.023294                       # miss rate for demand accesses
system.cpu.dcache.overall_miss_rate::.cpu.data     0.500000                       # miss rate for overall accesses
system.cpu.dcache.overall_miss_rate::.switch_cpus.data     0.023628                       # miss rate for overall accesses
system.cpu.dcache.overall_miss_rate::total     0.023628                       # miss rate for overall accesses
system.cpu.dcache.demand_avg_miss_latency::.switch_cpus.data 57089.652605                       # average overall miss latency
system.cpu.dcache.demand_avg_miss_latency::total 57089.449930                       # average overall miss latency
system.cpu.dcache.overall_avg_miss_latency::.switch_cpus.data 56174.744526                       # average overall miss latency
system.cpu.dcache.overall_avg_miss_latency::total 56174.548294                       # average overall miss latency
system.cpu.dcache.blocked_cycles::no_mshrs      5014182                       # number of cycles access was blocked
system.cpu.dcache.blocked_cycles::no_targets          185                       # number of cycles access was blocked
system.cpu.dcache.blocked::no_mshrs            110225                       # number of cycles access was blocked
system.cpu.dcache.blocked::no_targets               3                       # number of cycles access was blocked
system.cpu.dcache.avg_blocked_cycles::no_mshrs    45.490424                       # average number of cycles each access was blocked
system.cpu.dcache.avg_blocked_cycles::no_targets    61.666667                       # average number of cycles each access was blocked
system.cpu.dcache.writebacks::.writebacks       141028                       # number of writebacks
system.cpu.dcache.writebacks::total            141028                       # number of writebacks
system.cpu.dcache.demand_mshr_hits::.switch_cpus.data       387746                       # number of demand (read+write) MSHR hits
system.cpu.dcache.demand_mshr_hits::total       387746                       # number of demand (read+write) MSHR hits
system.cpu.dcache.overall_mshr_hits::.switch_cpus.data       387746                       # number of overall MSHR hits
system.cpu.dcache.overall_mshr_hits::total       387746                       # number of overall MSHR hits
system.cpu.dcache.demand_mshr_misses::.switch_cpus.data       457293                       # number of demand (read+write) MSHR misses
system.cpu.dcache.demand_mshr_misses::total       457293                       # number of demand (read+write) MSHR misses
system.cpu.dcache.overall_mshr_misses::.switch_cpus.data       462420                       # number of overall MSHR misses
system.cpu.dcache.overall_mshr_misses::total       462420                       # number of overall MSHR misses
system.cpu.dcache.demand_mshr_miss_latency::.switch_cpus.data  29246971449                       # number of demand (read+write) MSHR miss cycles
system.cpu.dcache.demand_mshr_miss_latency::total  29246971449                       # number of demand (read+write) MSHR miss cycles
system.cpu.dcache.overall_mshr_miss_latency::.switch_cpus.data  29712082449                       # number of overall MSHR miss cycles
system.cpu.dcache.overall_mshr_miss_latency::total  29712082449                       # number of overall MSHR miss cycles
system.cpu.dcache.demand_mshr_miss_rate::.switch_cpus.data     0.012605                       # mshr miss rate for demand accesses
system.cpu.dcache.demand_mshr_miss_rate::total     0.012605                       # mshr miss rate for demand accesses
system.cpu.dcache.overall_mshr_miss_rate::.switch_cpus.data     0.012722                       # mshr miss rate for overall accesses
system.cpu.dcache.overall_mshr_miss_rate::total     0.012722                       # mshr miss rate for overall accesses
system.cpu.dcache.demand_avg_mshr_miss_latency::.switch_cpus.data 63956.744251                       # average overall mshr miss latency
system.cpu.dcache.demand_avg_mshr_miss_latency::total 63956.744251                       # average overall mshr miss latency
system.cpu.dcache.overall_avg_mshr_miss_latency::.switch_cpus.data 64253.454541                       # average overall mshr miss latency
system.cpu.dcache.overall_avg_mshr_miss_latency::total 64253.454541                       # average overall mshr miss latency
system.cpu.dcache.replacements                 461399                       # number of replacements
system.cpu.dcache.ReadReq_hits::.cpu.data            2                       # number of ReadReq hits
system.cpu.dcache.ReadReq_hits::.switch_cpus.data     26974600                       # number of ReadReq hits
system.cpu.dcache.ReadReq_hits::total        26974602                       # number of ReadReq hits
system.cpu.dcache.ReadReq_misses::.cpu.data            2                       # number of ReadReq misses
system.cpu.dcache.ReadReq_misses::.switch_cpus.data       721787                       # number of ReadReq misses
system.cpu.dcache.ReadReq_misses::total        721789                       # number of ReadReq misses
system.cpu.dcache.ReadReq_miss_latency::.switch_cpus.data  40524027000                       # number of ReadReq miss cycles
system.cpu.dcache.ReadReq_miss_latency::total  40524027000                       # number of ReadReq miss cycles
system.cpu.dcache.ReadReq_accesses::.cpu.data            4                       # number of ReadReq accesses(hits+misses)
system.cpu.dcache.ReadReq_accesses::.switch_cpus.data     27696387                       # number of ReadReq accesses(hits+misses)
system.cpu.dcache.ReadReq_accesses::total     27696391                       # number of ReadReq accesses(hits+misses)
system.cpu.dcache.ReadReq_miss_rate::.cpu.data     0.500000                       # miss rate for ReadReq accesses
system.cpu.dcache.ReadReq_miss_rate::.switch_cpus.data     0.026061                       # miss rate for ReadReq accesses
system.cpu.dcache.ReadReq_miss_rate::total     0.026061                       # miss rate for ReadReq accesses
system.cpu.dcache.ReadReq_avg_miss_latency::.switch_cpus.data 56144.024484                       # average ReadReq miss latency
system.cpu.dcache.ReadReq_avg_miss_latency::total 56143.868915                       # average ReadReq miss latency
system.cpu.dcache.ReadReq_mshr_hits::.switch_cpus.data       387648                       # number of ReadReq MSHR hits
system.cpu.dcache.ReadReq_mshr_hits::total       387648                       # number of ReadReq MSHR hits
system.cpu.dcache.ReadReq_mshr_misses::.switch_cpus.data       334139                       # number of ReadReq MSHR misses
system.cpu.dcache.ReadReq_mshr_misses::total       334139                       # number of ReadReq MSHR misses
system.cpu.dcache.ReadReq_mshr_miss_latency::.switch_cpus.data  21653449000                       # number of ReadReq MSHR miss cycles
system.cpu.dcache.ReadReq_mshr_miss_latency::total  21653449000                       # number of ReadReq MSHR miss cycles
system.cpu.dcache.ReadReq_mshr_miss_rate::.switch_cpus.data     0.012064                       # mshr miss rate for ReadReq accesses
system.cpu.dcache.ReadReq_mshr_miss_rate::total     0.012064                       # mshr miss rate for ReadReq accesses
system.cpu.dcache.ReadReq_avg_mshr_miss_latency::.switch_cpus.data 64803.716417                       # average ReadReq mshr miss latency
system.cpu.dcache.ReadReq_avg_mshr_miss_latency::total 64803.716417                       # average ReadReq mshr miss latency
system.cpu.dcache.WriteReq_hits::.cpu.data            1                       # number of WriteReq hits
system.cpu.dcache.WriteReq_hits::.switch_cpus.data      8457845                       # number of WriteReq hits
system.cpu.dcache.WriteReq_hits::total        8457846                       # number of WriteReq hits
system.cpu.dcache.WriteReq_misses::.cpu.data            1                       # number of WriteReq misses
system.cpu.dcache.WriteReq_misses::.switch_cpus.data       123252                       # number of WriteReq misses
system.cpu.dcache.WriteReq_misses::total       123253                       # number of WriteReq misses
system.cpu.dcache.WriteReq_miss_latency::.switch_cpus.data   7718955948                       # number of WriteReq miss cycles
system.cpu.dcache.WriteReq_miss_latency::total   7718955948                       # number of WriteReq miss cycles
system.cpu.dcache.WriteReq_accesses::.cpu.data            2                       # number of WriteReq accesses(hits+misses)
system.cpu.dcache.WriteReq_accesses::.switch_cpus.data      8581097                       # number of WriteReq accesses(hits+misses)
system.cpu.dcache.WriteReq_accesses::total      8581099                       # number of WriteReq accesses(hits+misses)
system.cpu.dcache.WriteReq_miss_rate::.cpu.data     0.500000                       # miss rate for WriteReq accesses
system.cpu.dcache.WriteReq_miss_rate::.switch_cpus.data     0.014363                       # miss rate for WriteReq accesses
system.cpu.dcache.WriteReq_miss_rate::total     0.014363                       # miss rate for WriteReq accesses
system.cpu.dcache.WriteReq_avg_miss_latency::.switch_cpus.data 62627.429559                       # average WriteReq miss latency
system.cpu.dcache.WriteReq_avg_miss_latency::total 62626.921438                       # average WriteReq miss latency
system.cpu.dcache.WriteReq_mshr_hits::.switch_cpus.data           98                       # number of WriteReq MSHR hits
system.cpu.dcache.WriteReq_mshr_hits::total           98                       # number of WriteReq MSHR hits
system.cpu.dcache.WriteReq_mshr_misses::.switch_cpus.data       123154                       # number of WriteReq MSHR misses
system.cpu.dcache.WriteReq_mshr_misses::total       123154                       # number of WriteReq MSHR misses
system.cpu.dcache.WriteReq_mshr_miss_latency::.switch_cpus.data   7593522449                       # number of WriteReq MSHR miss cycles
system.cpu.dcache.WriteReq_mshr_miss_latency::total   7593522449                       # number of WriteReq MSHR miss cycles
system.cpu.dcache.WriteReq_mshr_miss_rate::.switch_cpus.data     0.014352                       # mshr miss rate for WriteReq accesses
system.cpu.dcache.WriteReq_mshr_miss_rate::total     0.014352                       # mshr miss rate for WriteReq accesses
system.cpu.dcache.WriteReq_avg_mshr_miss_latency::.switch_cpus.data 61658.756102                       # average WriteReq mshr miss latency
system.cpu.dcache.WriteReq_avg_mshr_miss_latency::total 61658.756102                       # average WriteReq mshr miss latency
system.cpu.dcache.SoftPFReq_hits::.switch_cpus.data        55437                       # number of SoftPFReq hits
system.cpu.dcache.SoftPFReq_hits::total         55437                       # number of SoftPFReq hits
system.cpu.dcache.SoftPFReq_misses::.switch_cpus.data        13763                       # number of SoftPFReq misses
system.cpu.dcache.SoftPFReq_misses::total        13763                       # number of SoftPFReq misses
system.cpu.dcache.SoftPFReq_accesses::.switch_cpus.data        69200                       # number of SoftPFReq accesses(hits+misses)
system.cpu.dcache.SoftPFReq_accesses::total        69200                       # number of SoftPFReq accesses(hits+misses)
system.cpu.dcache.SoftPFReq_miss_rate::.switch_cpus.data     0.198887                       # miss rate for SoftPFReq accesses
system.cpu.dcache.SoftPFReq_miss_rate::total     0.198887                       # miss rate for SoftPFReq accesses
system.cpu.dcache.SoftPFReq_mshr_misses::.switch_cpus.data         5127                       # number of SoftPFReq MSHR misses
system.cpu.dcache.SoftPFReq_mshr_misses::total         5127                       # number of SoftPFReq MSHR misses
system.cpu.dcache.SoftPFReq_mshr_miss_latency::.switch_cpus.data    465111000                       # number of SoftPFReq MSHR miss cycles
system.cpu.dcache.SoftPFReq_mshr_miss_latency::total    465111000                       # number of SoftPFReq MSHR miss cycles
system.cpu.dcache.SoftPFReq_mshr_miss_rate::.switch_cpus.data     0.074090                       # mshr miss rate for SoftPFReq accesses
system.cpu.dcache.SoftPFReq_mshr_miss_rate::total     0.074090                       # mshr miss rate for SoftPFReq accesses
system.cpu.dcache.SoftPFReq_avg_mshr_miss_latency::.switch_cpus.data 90717.963721                       # average SoftPFReq mshr miss latency
system.cpu.dcache.SoftPFReq_avg_mshr_miss_latency::total 90717.963721                       # average SoftPFReq mshr miss latency
system.cpu.dcache.tags.pwrStateResidencyTicks::UNDEFINED 572593415461000                       # Cumulative time (in ticks) in various power states
system.cpu.dcache.tags.tagsinuse             0.046572                       # Cycle average of tags in use
system.cpu.dcache.tags.total_refs            35950308                       # Total number of references to valid blocks.
system.cpu.dcache.tags.sampled_refs            462423                       # Sample count of references to valid blocks.
system.cpu.dcache.tags.avg_refs             77.743339                       # Average number of references to valid blocks.
system.cpu.dcache.tags.warmup_cycle      572567313256500                       # Cycle when the warmup percentage was hit.
system.cpu.dcache.tags.occ_blocks::.cpu.data     0.000001                       # Average occupied blocks per requestor
system.cpu.dcache.tags.occ_blocks::.switch_cpus.data     0.046570                       # Average occupied blocks per requestor
system.cpu.dcache.tags.occ_percent::.cpu.data     0.000000                       # Average percentage of cache occupancy
system.cpu.dcache.tags.occ_percent::.switch_cpus.data     0.000045                       # Average percentage of cache occupancy
system.cpu.dcache.tags.occ_percent::total     0.000045                       # Average percentage of cache occupancy
system.cpu.dcache.tags.occ_task_id_blocks::1024         1024                       # Occupied blocks per task id
system.cpu.dcache.tags.age_task_id_blocks_1024::0          118                       # Occupied blocks per task id
system.cpu.dcache.tags.age_task_id_blocks_1024::1          568                       # Occupied blocks per task id
system.cpu.dcache.tags.age_task_id_blocks_1024::2          333                       # Occupied blocks per task id
system.cpu.dcache.tags.age_task_id_blocks_1024::3            5                       # Occupied blocks per task id
system.cpu.dcache.tags.occ_task_id_percent::1024            1                       # Percentage of cache occupancy per task id
system.cpu.dcache.tags.tag_accesses          73155803                       # Number of tag accesses
system.cpu.dcache.tags.data_accesses         73155803                       # Number of data accesses

---------- End Simulation Statistics   ----------
