
---------- Begin Simulation Statistics ----------
final_tick                               258574675971500                       # Number of ticks from beginning of simulation (restored from checkpoints and never reset)
host_inst_rate                                  15287                       # Simulator instruction rate (inst/s)
host_mem_usage                                 866876                       # Number of bytes of host memory used
host_op_rate                                    27902                       # Simulator op (including micro ops) rate (op/s)
host_seconds                                   654.17                       # Real time elapsed on the host
host_tick_rate                              171017362                       # Simulator tick rate (ticks/s)
sim_freq                                 1000000000000                       # Frequency of simulated ticks
sim_insts                                    10000009                       # Number of instructions simulated
sim_ops                                      18252470                       # Number of ops (including micro ops) simulated
sim_seconds                                  0.111874                       # Number of seconds simulated
sim_ticks                                111874426500                       # Number of ticks simulated
system.cpu.Branches                                 2                       # Number of branches fetched
system.cpu.committedInsts                           9                       # Number of instructions committed
system.cpu.committedOps                            16                       # Number of ops (including micro ops) committed
system.cpu.dtb.rdAccesses                           5                       # TLB accesses on read requests
system.cpu.dtb.rdMisses                             0                       # TLB misses on read requests
system.cpu.dtb.wrAccesses                           0                       # TLB accesses on write requests
system.cpu.dtb.wrMisses                             0                       # TLB misses on write requests
system.cpu.idle_fraction                            0                       # Percentage of idle cycles
system.cpu.itb.rdAccesses                           0                       # TLB accesses on read requests
system.cpu.itb.rdMisses                             0                       # TLB misses on read requests
system.cpu.itb.wrAccesses                          13                       # TLB accesses on write requests
system.cpu.itb.wrMisses                             0                       # TLB misses on write requests
system.cpu.not_idle_fraction                        1                       # Percentage of non-idle cycles
system.cpu.numCycles                               20                       # number of cpu cycles simulated
system.cpu.numWorkItemsCompleted                    0                       # number of work items this cpu completed
system.cpu.numWorkItemsStarted                      0                       # number of work items this cpu started
system.cpu.num_busy_cycles                         20                       # Number of busy cycles
system.cpu.num_cc_register_reads                   11                       # number of times the CC registers were read
system.cpu.num_cc_register_writes                   8                       # number of times the CC registers were written
system.cpu.num_conditional_control_insts            2                       # number of instructions that are conditional controls
system.cpu.num_fp_alu_accesses                      0                       # Number of float alu accesses
system.cpu.num_fp_insts                             0                       # number of float instructions
system.cpu.num_fp_register_reads                    0                       # number of times the floating registers were read
system.cpu.num_fp_register_writes                   0                       # number of times the floating registers were written
system.cpu.num_func_calls                           0                       # number of times a function call or return occured
system.cpu.num_idle_cycles                          0                       # Number of idle cycles
system.cpu.num_int_alu_accesses                    16                       # Number of integer alu accesses
system.cpu.num_int_insts                           16                       # number of integer instructions
system.cpu.num_int_register_reads                  32                       # number of times the integer registers were read
system.cpu.num_int_register_writes                 14                       # number of times the integer registers were written
system.cpu.num_load_insts                           5                       # Number of load instructions
system.cpu.num_mem_refs                             5                       # number of memory refs
system.cpu.num_store_insts                          0                       # Number of store instructions
system.cpu.num_vec_alu_accesses                     0                       # Number of vector alu accesses
system.cpu.num_vec_insts                            0                       # number of vector instructions
system.cpu.num_vec_register_reads                   0                       # number of times the vector registers were read
system.cpu.num_vec_register_writes                  0                       # number of times the vector registers were written
system.cpu.op_class::No_OpClass                     0      0.00%      0.00% # Class of executed instruction
system.cpu.op_class::IntAlu                        11     68.75%     68.75% # Class of executed instruction
system.cpu.op_class::IntMult                        0      0.00%     68.75% # Class of executed instruction
system.cpu.op_class::IntDiv                         0      0.00%     68.75% # Class of executed instruction
system.cpu.op_class::FloatAdd                       0      0.00%     68.75% # Class of executed instruction
system.cpu.op_class::FloatCmp                       0      0.00%     68.75% # Class of executed instruction
system.cpu.op_class::FloatCvt                       0      0.00%     68.75% # Class of executed instruction
system.cpu.op_class::FloatMult                      0      0.00%     68.75% # Class of executed instruction
system.cpu.op_class::FloatMultAcc                   0      0.00%     68.75% # Class of executed instruction
system.cpu.op_class::FloatDiv                       0      0.00%     68.75% # Class of executed instruction
system.cpu.op_class::FloatMisc                      0      0.00%     68.75% # Class of executed instruction
system.cpu.op_class::FloatSqrt                      0      0.00%     68.75% # Class of executed instruction
system.cpu.op_class::SimdAdd                        0      0.00%     68.75% # Class of executed instruction
system.cpu.op_class::SimdAddAcc                     0      0.00%     68.75% # Class of executed instruction
system.cpu.op_class::SimdAlu                        0      0.00%     68.75% # Class of executed instruction
system.cpu.op_class::SimdCmp                        0      0.00%     68.75% # Class of executed instruction
system.cpu.op_class::SimdCvt                        0      0.00%     68.75% # Class of executed instruction
system.cpu.op_class::SimdMisc                       0      0.00%     68.75% # Class of executed instruction
system.cpu.op_class::SimdMult                       0      0.00%     68.75% # Class of executed instruction
system.cpu.op_class::SimdMultAcc                    0      0.00%     68.75% # Class of executed instruction
system.cpu.op_class::SimdShift                      0      0.00%     68.75% # Class of executed instruction
system.cpu.op_class::SimdShiftAcc                   0      0.00%     68.75% # Class of executed instruction
system.cpu.op_class::SimdDiv                        0      0.00%     68.75% # Class of executed instruction
system.cpu.op_class::SimdSqrt                       0      0.00%     68.75% # Class of executed instruction
system.cpu.op_class::SimdFloatAdd                   0      0.00%     68.75% # Class of executed instruction
system.cpu.op_class::SimdFloatAlu                   0      0.00%     68.75% # Class of executed instruction
system.cpu.op_class::SimdFloatCmp                   0      0.00%     68.75% # Class of executed instruction
system.cpu.op_class::SimdFloatCvt                   0      0.00%     68.75% # Class of executed instruction
system.cpu.op_class::SimdFloatDiv                   0      0.00%     68.75% # Class of executed instruction
system.cpu.op_class::SimdFloatMisc                  0      0.00%     68.75% # Class of executed instruction
system.cpu.op_class::SimdFloatMult                  0      0.00%     68.75% # Class of executed instruction
system.cpu.op_class::SimdFloatMultAcc               0      0.00%     68.75% # Class of executed instruction
system.cpu.op_class::SimdFloatSqrt                  0      0.00%     68.75% # Class of executed instruction
system.cpu.op_class::SimdReduceAdd                  0      0.00%     68.75% # Class of executed instruction
system.cpu.op_class::SimdReduceAlu                  0      0.00%     68.75% # Class of executed instruction
system.cpu.op_class::SimdReduceCmp                  0      0.00%     68.75% # Class of executed instruction
system.cpu.op_class::SimdFloatReduceAdd             0      0.00%     68.75% # Class of executed instruction
system.cpu.op_class::SimdFloatReduceCmp             0      0.00%     68.75% # Class of executed instruction
system.cpu.op_class::SimdAes                        0      0.00%     68.75% # Class of executed instruction
system.cpu.op_class::SimdAesMix                     0      0.00%     68.75% # Class of executed instruction
system.cpu.op_class::SimdSha1Hash                   0      0.00%     68.75% # Class of executed instruction
system.cpu.op_class::SimdSha1Hash2                  0      0.00%     68.75% # Class of executed instruction
system.cpu.op_class::SimdSha256Hash                 0      0.00%     68.75% # Class of executed instruction
system.cpu.op_class::SimdSha256Hash2                0      0.00%     68.75% # Class of executed instruction
system.cpu.op_class::SimdShaSigma2                  0      0.00%     68.75% # Class of executed instruction
system.cpu.op_class::SimdShaSigma3                  0      0.00%     68.75% # Class of executed instruction
system.cpu.op_class::SimdPredAlu                    0      0.00%     68.75% # Class of executed instruction
system.cpu.op_class::MemRead                        5     31.25%    100.00% # Class of executed instruction
system.cpu.op_class::MemWrite                       0      0.00%    100.00% # Class of executed instruction
system.cpu.op_class::FloatMemRead                   0      0.00%    100.00% # Class of executed instruction
system.cpu.op_class::FloatMemWrite                  0      0.00%    100.00% # Class of executed instruction
system.cpu.op_class::IprAccess                      0      0.00%    100.00% # Class of executed instruction
system.cpu.op_class::InstPrefetch                   0      0.00%    100.00% # Class of executed instruction
system.cpu.op_class::total                         16                       # Class of executed instruction
system.cpu.workload.numSyscalls                     0                       # Number of system calls
system.membus.snoop_filter.hit_multi_requests            0                       # Number of requests hitting in the snoop filter with multiple (>1) holders of the requested data.
system.membus.snoop_filter.hit_multi_snoops            0                       # Number of snoops hitting in the snoop filter with multiple (>1) holders of the requested data.
system.membus.snoop_filter.hit_single_requests      3040705                       # Number of requests hitting in the snoop filter with a single holder of the requested data.
system.membus.snoop_filter.hit_single_snoops            0                       # Number of snoops hitting in the snoop filter with a single holder of the requested data.
system.membus.snoop_filter.tot_requests       6085525                       # Total number of requests made to the snoop filter.
system.membus.snoop_filter.tot_snoops               0                       # Total number of snoops made to the snoop filter.
system.switch_cpus.branchPred.BTBCorrect            0                       # Number of correct BTB predictions (this stat may not work properly.
system.switch_cpus.branchPred.BTBHitPct      0.000000                       # BTB Hit Percentage
system.switch_cpus.branchPred.BTBHits               0                       # Number of BTB hits
system.switch_cpus.branchPred.BTBLookups       941118                       # Number of BTB lookups
system.switch_cpus.branchPred.RASInCorrect            0                       # Number of incorrect RAS predictions.
system.switch_cpus.branchPred.condIncorrect         9766                       # Number of conditional branches incorrect
system.switch_cpus.branchPred.condPredicted      2675037                       # Number of conditional branches predicted
system.switch_cpus.branchPred.indirectHits       935912                       # Number of indirect target hits.
system.switch_cpus.branchPred.indirectLookups       941118                       # Number of indirect predictor lookups.
system.switch_cpus.branchPred.indirectMisses         5206                       # Number of indirect misses.
system.switch_cpus.branchPred.lookups         2675054                       # Number of BP lookups
system.switch_cpus.branchPred.usedRAS               1                       # Number of times the RAS was used to get a target.
system.switch_cpus.branchPredindirectMispredicted          231                       # Number of mispredicted indirect branches.
system.switch_cpus.cc_regfile_reads          13394556                       # number of cc regfile reads
system.switch_cpus.cc_regfile_writes          8263173                       # number of cc regfile writes
system.switch_cpus.commit.amos                      0                       # Number of atomic instructions committed
system.switch_cpus.commit.branchMispredicts         9777                       # The number of times a branch was mispredicted
system.switch_cpus.commit.branches            2499612                       # Number of branches committed
system.switch_cpus.commit.bw_lim_events           376                       # number cycles where commit BW limit reached
system.switch_cpus.commit.commitSquashedInsts       885118                       # The number of squashed insts skipped by commit
system.switch_cpus.commit.committedInsts     10000000                       # Number of instructions committed
system.switch_cpus.commit.committedOps       18252454                       # Number of ops (including micro ops) committed
system.switch_cpus.commit.committed_per_cycle::samples    223631998                       # Number of insts commited each cycle
system.switch_cpus.commit.committed_per_cycle::mean     0.081618                       # Number of insts commited each cycle
system.switch_cpus.commit.committed_per_cycle::stdev     0.464095                       # Number of insts commited each cycle
system.switch_cpus.commit.committed_per_cycle::underflows            0      0.00%      0.00% # Number of insts commited each cycle
system.switch_cpus.commit.committed_per_cycle::0    214135789     95.75%     95.75% # Number of insts commited each cycle
system.switch_cpus.commit.committed_per_cycle::1      5014577      2.24%     98.00% # Number of insts commited each cycle
system.switch_cpus.commit.committed_per_cycle::2      1979299      0.89%     98.88% # Number of insts commited each cycle
system.switch_cpus.commit.committed_per_cycle::3      1343139      0.60%     99.48% # Number of insts commited each cycle
system.switch_cpus.commit.committed_per_cycle::4       830387      0.37%     99.85% # Number of insts commited each cycle
system.switch_cpus.commit.committed_per_cycle::5        45732      0.02%     99.87% # Number of insts commited each cycle
system.switch_cpus.commit.committed_per_cycle::6       282247      0.13%    100.00% # Number of insts commited each cycle
system.switch_cpus.commit.committed_per_cycle::7          452      0.00%    100.00% # Number of insts commited each cycle
system.switch_cpus.commit.committed_per_cycle::8          376      0.00%    100.00% # Number of insts commited each cycle
system.switch_cpus.commit.committed_per_cycle::overflows            0      0.00%    100.00% # Number of insts commited each cycle
system.switch_cpus.commit.committed_per_cycle::min_value            0                       # Number of insts commited each cycle
system.switch_cpus.commit.committed_per_cycle::max_value            8                       # Number of insts commited each cycle
system.switch_cpus.commit.committed_per_cycle::total    223631998                       # Number of insts commited each cycle
system.switch_cpus.commit.fp_insts                  0                       # Number of committed floating point instructions.
system.switch_cpus.commit.function_calls            0                       # Number of function calls committed.
system.switch_cpus.commit.int_insts          18252232                       # Number of committed integer instructions.
system.switch_cpus.commit.loads               5000554                       # Number of loads committed
system.switch_cpus.commit.membars                   0                       # Number of memory barriers committed
system.switch_cpus.commit.op_class_0::No_OpClass            0      0.00%      0.00% # Class of committed instruction
system.switch_cpus.commit.op_class_0::IntAlu     13251456     72.60%     72.60% # Class of committed instruction
system.switch_cpus.commit.op_class_0::IntMult            0      0.00%     72.60% # Class of committed instruction
system.switch_cpus.commit.op_class_0::IntDiv            0      0.00%     72.60% # Class of committed instruction
system.switch_cpus.commit.op_class_0::FloatAdd            0      0.00%     72.60% # Class of committed instruction
system.switch_cpus.commit.op_class_0::FloatCmp            0      0.00%     72.60% # Class of committed instruction
system.switch_cpus.commit.op_class_0::FloatCvt            0      0.00%     72.60% # Class of committed instruction
system.switch_cpus.commit.op_class_0::FloatMult            0      0.00%     72.60% # Class of committed instruction
system.switch_cpus.commit.op_class_0::FloatMultAcc            0      0.00%     72.60% # Class of committed instruction
system.switch_cpus.commit.op_class_0::FloatDiv            0      0.00%     72.60% # Class of committed instruction
system.switch_cpus.commit.op_class_0::FloatMisc            0      0.00%     72.60% # Class of committed instruction
system.switch_cpus.commit.op_class_0::FloatSqrt            0      0.00%     72.60% # Class of committed instruction
system.switch_cpus.commit.op_class_0::SimdAdd            0      0.00%     72.60% # Class of committed instruction
system.switch_cpus.commit.op_class_0::SimdAddAcc            0      0.00%     72.60% # Class of committed instruction
system.switch_cpus.commit.op_class_0::SimdAlu            0      0.00%     72.60% # Class of committed instruction
system.switch_cpus.commit.op_class_0::SimdCmp            0      0.00%     72.60% # Class of committed instruction
system.switch_cpus.commit.op_class_0::SimdCvt            0      0.00%     72.60% # Class of committed instruction
system.switch_cpus.commit.op_class_0::SimdMisc            0      0.00%     72.60% # Class of committed instruction
system.switch_cpus.commit.op_class_0::SimdMult            0      0.00%     72.60% # Class of committed instruction
system.switch_cpus.commit.op_class_0::SimdMultAcc            0      0.00%     72.60% # Class of committed instruction
system.switch_cpus.commit.op_class_0::SimdShift            0      0.00%     72.60% # Class of committed instruction
system.switch_cpus.commit.op_class_0::SimdShiftAcc            0      0.00%     72.60% # Class of committed instruction
system.switch_cpus.commit.op_class_0::SimdDiv            0      0.00%     72.60% # Class of committed instruction
system.switch_cpus.commit.op_class_0::SimdSqrt            0      0.00%     72.60% # Class of committed instruction
system.switch_cpus.commit.op_class_0::SimdFloatAdd            0      0.00%     72.60% # Class of committed instruction
system.switch_cpus.commit.op_class_0::SimdFloatAlu            0      0.00%     72.60% # Class of committed instruction
system.switch_cpus.commit.op_class_0::SimdFloatCmp            0      0.00%     72.60% # Class of committed instruction
system.switch_cpus.commit.op_class_0::SimdFloatCvt            0      0.00%     72.60% # Class of committed instruction
system.switch_cpus.commit.op_class_0::SimdFloatDiv            0      0.00%     72.60% # Class of committed instruction
system.switch_cpus.commit.op_class_0::SimdFloatMisc            0      0.00%     72.60% # Class of committed instruction
system.switch_cpus.commit.op_class_0::SimdFloatMult            0      0.00%     72.60% # Class of committed instruction
system.switch_cpus.commit.op_class_0::SimdFloatMultAcc            0      0.00%     72.60% # Class of committed instruction
system.switch_cpus.commit.op_class_0::SimdFloatSqrt            0      0.00%     72.60% # Class of committed instruction
system.switch_cpus.commit.op_class_0::SimdReduceAdd            0      0.00%     72.60% # Class of committed instruction
system.switch_cpus.commit.op_class_0::SimdReduceAlu            0      0.00%     72.60% # Class of committed instruction
system.switch_cpus.commit.op_class_0::SimdReduceCmp            0      0.00%     72.60% # Class of committed instruction
system.switch_cpus.commit.op_class_0::SimdFloatReduceAdd            0      0.00%     72.60% # Class of committed instruction
system.switch_cpus.commit.op_class_0::SimdFloatReduceCmp            0      0.00%     72.60% # Class of committed instruction
system.switch_cpus.commit.op_class_0::SimdAes            0      0.00%     72.60% # Class of committed instruction
system.switch_cpus.commit.op_class_0::SimdAesMix            0      0.00%     72.60% # Class of committed instruction
system.switch_cpus.commit.op_class_0::SimdSha1Hash            0      0.00%     72.60% # Class of committed instruction
system.switch_cpus.commit.op_class_0::SimdSha1Hash2            0      0.00%     72.60% # Class of committed instruction
system.switch_cpus.commit.op_class_0::SimdSha256Hash            0      0.00%     72.60% # Class of committed instruction
system.switch_cpus.commit.op_class_0::SimdSha256Hash2            0      0.00%     72.60% # Class of committed instruction
system.switch_cpus.commit.op_class_0::SimdShaSigma2            0      0.00%     72.60% # Class of committed instruction
system.switch_cpus.commit.op_class_0::SimdShaSigma3            0      0.00%     72.60% # Class of committed instruction
system.switch_cpus.commit.op_class_0::SimdPredAlu            0      0.00%     72.60% # Class of committed instruction
system.switch_cpus.commit.op_class_0::MemRead      5000554     27.40%    100.00% # Class of committed instruction
system.switch_cpus.commit.op_class_0::MemWrite          444      0.00%    100.00% # Class of committed instruction
system.switch_cpus.commit.op_class_0::FloatMemRead            0      0.00%    100.00% # Class of committed instruction
system.switch_cpus.commit.op_class_0::FloatMemWrite            0      0.00%    100.00% # Class of committed instruction
system.switch_cpus.commit.op_class_0::IprAccess            0      0.00%    100.00% # Class of committed instruction
system.switch_cpus.commit.op_class_0::InstPrefetch            0      0.00%    100.00% # Class of committed instruction
system.switch_cpus.commit.op_class_0::total     18252454                       # Class of committed instruction
system.switch_cpus.commit.refs                5000998                       # Number of memory references committed
system.switch_cpus.commit.swp_count                 0                       # Number of s/w prefetches committed
system.switch_cpus.commit.vec_insts                 0                       # Number of committed Vector instructions.
system.switch_cpus.committedInsts            10000000                       # Number of Instructions Simulated
system.switch_cpus.committedOps              18252454                       # Number of Ops (including micro ops) Simulated
system.switch_cpus.cpi                      22.374883                       # CPI: Cycles Per Instruction
system.switch_cpus.cpi_total                22.374883                       # CPI: Total CPI of All Threads
system.switch_cpus.decode.BlockedCycles     220537408                       # Number of cycles decode is blocked
system.switch_cpus.decode.DecodedInsts       19210060                       # Number of instructions handled by decode
system.switch_cpus.decode.IdleCycles           791424                       # Number of cycles decode is idle
system.switch_cpus.decode.RunCycles            111857                       # Number of cycles decode is running
system.switch_cpus.decode.SquashCycles           9783                       # Number of cycles decode is squashing
system.switch_cpus.decode.UnblockCycles       2297250                       # Number of cycles decode is unblocking
system.switch_cpus.dtb.rdAccesses             5052923                       # TLB accesses on read requests
system.switch_cpus.dtb.rdMisses                 64064                       # TLB misses on read requests
system.switch_cpus.dtb.wrAccesses                2980                       # TLB accesses on write requests
system.switch_cpus.dtb.wrMisses                   223                       # TLB misses on write requests
system.switch_cpus.fetch.Branches             2675054                       # Number of branches that fetch encountered
system.switch_cpus.fetch.CacheLines           1600794                       # Number of cache lines fetched
system.switch_cpus.fetch.Cycles             222133153                       # Number of cycles fetch has run and was not squashing or blocked
system.switch_cpus.fetch.IcacheSquashes           372                       # Number of outstanding Icache misses that were squashed
system.switch_cpus.fetch.Insts               10733121                       # Number of instructions fetch has processed
system.switch_cpus.fetch.MiscStallCycles           11                       # Number of cycles fetch has spent waiting on interrupts, or bad addresses, or out of MSHRs
system.switch_cpus.fetch.PendingTrapStallCycles           68                       # Number of stall cycles due to pending traps
system.switch_cpus.fetch.SquashCycles           19566                       # Number of cycles fetch has spent squashing
system.switch_cpus.fetch.branchRate          0.011956                       # Number of branch fetches per cycle
system.switch_cpus.fetch.icacheStallCycles      1604715                       # Number of cycles fetch is stalled on an Icache miss
system.switch_cpus.fetch.predictedBranches       935913                       # Number of branches that fetch has predicted taken
system.switch_cpus.fetch.rate                0.047970                       # Number of inst fetches per cycle
system.switch_cpus.fetch.rateDist::samples    223747730                       # Number of instructions fetched each cycle (Total)
system.switch_cpus.fetch.rateDist::mean      0.087424                       # Number of instructions fetched each cycle (Total)
system.switch_cpus.fetch.rateDist::stdev     0.742682                       # Number of instructions fetched each cycle (Total)
system.switch_cpus.fetch.rateDist::underflows            0      0.00%      0.00% # Number of instructions fetched each cycle (Total)
system.switch_cpus.fetch.rateDist::0        220118799     98.38%     98.38% # Number of instructions fetched each cycle (Total)
system.switch_cpus.fetch.rateDist::1            41328      0.02%     98.40% # Number of instructions fetched each cycle (Total)
system.switch_cpus.fetch.rateDist::2           736224      0.33%     98.73% # Number of instructions fetched each cycle (Total)
system.switch_cpus.fetch.rateDist::3            40986      0.02%     98.74% # Number of instructions fetched each cycle (Total)
system.switch_cpus.fetch.rateDist::4           705829      0.32%     99.06% # Number of instructions fetched each cycle (Total)
system.switch_cpus.fetch.rateDist::5            40956      0.02%     99.08% # Number of instructions fetched each cycle (Total)
system.switch_cpus.fetch.rateDist::6           786667      0.35%     99.43% # Number of instructions fetched each cycle (Total)
system.switch_cpus.fetch.rateDist::7            39497      0.02%     99.45% # Number of instructions fetched each cycle (Total)
system.switch_cpus.fetch.rateDist::8          1237444      0.55%    100.00% # Number of instructions fetched each cycle (Total)
system.switch_cpus.fetch.rateDist::overflows            0      0.00%    100.00% # Number of instructions fetched each cycle (Total)
system.switch_cpus.fetch.rateDist::min_value            0                       # Number of instructions fetched each cycle (Total)
system.switch_cpus.fetch.rateDist::max_value            8                       # Number of instructions fetched each cycle (Total)
system.switch_cpus.fetch.rateDist::total    223747730                       # Number of instructions fetched each cycle (Total)
system.switch_cpus.fp_regfile_writes               56                       # number of floating regfile writes
system.switch_cpus.idleCycles                    1103                       # Total number of cycles that the CPU has spent unscheduled due to idling
system.switch_cpus.iew.branchMispredicts         9799                       # Number of branch mispredicts detected at execute
system.switch_cpus.iew.exec_branches          2503138                       # Number of branches executed
system.switch_cpus.iew.exec_nop                     0                       # number of nop insts executed
system.switch_cpus.iew.exec_rate             0.083074                       # Inst execution rate
system.switch_cpus.iew.exec_refs              5058761                       # number of memory reference insts executed
system.switch_cpus.iew.exec_stores               2980                       # Number of stores executed
system.switch_cpus.iew.exec_swp                     0                       # number of swp insts executed
system.switch_cpus.iew.iewBlockCycles       178454512                       # Number of cycles IEW is blocking
system.switch_cpus.iew.iewDispLoadInsts       5240910                       # Number of dispatched load instructions
system.switch_cpus.iew.iewDispNonSpecInsts            0                       # Number of dispatched non-speculative instructions
system.switch_cpus.iew.iewDispSquashedInsts           50                       # Number of squashed instructions skipped by dispatch
system.switch_cpus.iew.iewDispStoreInsts         5793                       # Number of dispatched store instructions
system.switch_cpus.iew.iewDispatchedInsts     19137647                       # Number of instructions dispatched to IQ
system.switch_cpus.iew.iewExecLoadInsts       5055781                       # Number of load instructions executed
system.switch_cpus.iew.iewExecSquashedInsts         9614                       # Number of squashed instructions skipped in execute
system.switch_cpus.iew.iewExecutedInsts      18587717                       # Number of executed instructions
system.switch_cpus.iew.iewIQFullEvents         373931                       # Number of times the IQ has become full, causing a stall
system.switch_cpus.iew.iewIdleCycles                0                       # Number of cycles IEW is idle
system.switch_cpus.iew.iewLSQFullEvents           327                       # Number of times the LSQ has become full, causing a stall
system.switch_cpus.iew.iewSquashCycles           9783                       # Number of cycles IEW is squashing
system.switch_cpus.iew.iewUnblockCycles       1695251                       # Number of cycles IEW is unblocking
system.switch_cpus.iew.lsq.thread0.blockedLoads            0                       # Number of blocked loads due to partial load-store forwarding
system.switch_cpus.iew.lsq.thread0.cacheBlocked         2457                       # Number of times an access to memory failed due to the cache being blocked
system.switch_cpus.iew.lsq.thread0.forwLoads          600                       # Number of loads that had data forwarded from stores
system.switch_cpus.iew.lsq.thread0.ignoredResponses            0                       # Number of memory responses ignored because the instruction is squashed
system.switch_cpus.iew.lsq.thread0.invAddrLoads            0                       # Number of loads ignored due to an invalid address
system.switch_cpus.iew.lsq.thread0.invAddrSwpfs            0                       # Number of software prefetches ignored due to an invalid address
system.switch_cpus.iew.lsq.thread0.memOrderViolation           50                       # Number of memory ordering violations
system.switch_cpus.iew.lsq.thread0.rescheduledLoads            0                       # Number of loads that were rescheduled
system.switch_cpus.iew.lsq.thread0.squashedLoads       240330                       # Number of loads squashed
system.switch_cpus.iew.lsq.thread0.squashedStores         5349                       # Number of stores squashed
system.switch_cpus.iew.memOrderViolationEvents           50                       # Number of memory order violations
system.switch_cpus.iew.predictedNotTakenIncorrect         6873                       # Number of branches that were predicted not taken incorrectly
system.switch_cpus.iew.predictedTakenIncorrect         2926                       # Number of branches that were predicted taken incorrectly
system.switch_cpus.iew.wb_consumers          19832726                       # num instructions consuming a value
system.switch_cpus.iew.wb_count              18566947                       # cumulative count of insts written-back
system.switch_cpus.iew.wb_fanout             0.615320                       # average fanout of values written-back
system.switch_cpus.iew.wb_producers          12203481                       # num instructions producing a value
system.switch_cpus.iew.wb_rate               0.082981                       # insts written-back per cycle
system.switch_cpus.iew.wb_sent               18567409                       # cumulative count of insts sent to commit
system.switch_cpus.int_regfile_reads         24270747                       # number of integer regfile reads
system.switch_cpus.int_regfile_writes        16060572                       # number of integer regfile writes
system.switch_cpus.ipc                       0.044693                       # IPC: Instructions Per Cycle
system.switch_cpus.ipc_total                 0.044693                       # IPC: Total IPC of All Threads
system.switch_cpus.iq.FU_type_0::No_OpClass          137      0.00%      0.00% # Type of FU issued
system.switch_cpus.iq.FU_type_0::IntAlu      13537978     72.80%     72.80% # Type of FU issued
system.switch_cpus.iq.FU_type_0::IntMult            4      0.00%     72.80% # Type of FU issued
system.switch_cpus.iq.FU_type_0::IntDiv             0      0.00%     72.80% # Type of FU issued
system.switch_cpus.iq.FU_type_0::FloatAdd            0      0.00%     72.80% # Type of FU issued
system.switch_cpus.iq.FU_type_0::FloatCmp            0      0.00%     72.80% # Type of FU issued
system.switch_cpus.iq.FU_type_0::FloatCvt            0      0.00%     72.80% # Type of FU issued
system.switch_cpus.iq.FU_type_0::FloatMult            0      0.00%     72.80% # Type of FU issued
system.switch_cpus.iq.FU_type_0::FloatMultAcc            0      0.00%     72.80% # Type of FU issued
system.switch_cpus.iq.FU_type_0::FloatDiv            0      0.00%     72.80% # Type of FU issued
system.switch_cpus.iq.FU_type_0::FloatMisc            0      0.00%     72.80% # Type of FU issued
system.switch_cpus.iq.FU_type_0::FloatSqrt            0      0.00%     72.80% # Type of FU issued
system.switch_cpus.iq.FU_type_0::SimdAdd            0      0.00%     72.80% # Type of FU issued
system.switch_cpus.iq.FU_type_0::SimdAddAcc            0      0.00%     72.80% # Type of FU issued
system.switch_cpus.iq.FU_type_0::SimdAlu            0      0.00%     72.80% # Type of FU issued
system.switch_cpus.iq.FU_type_0::SimdCmp            0      0.00%     72.80% # Type of FU issued
system.switch_cpus.iq.FU_type_0::SimdCvt            0      0.00%     72.80% # Type of FU issued
system.switch_cpus.iq.FU_type_0::SimdMisc            0      0.00%     72.80% # Type of FU issued
system.switch_cpus.iq.FU_type_0::SimdMult            0      0.00%     72.80% # Type of FU issued
system.switch_cpus.iq.FU_type_0::SimdMultAcc            0      0.00%     72.80% # Type of FU issued
system.switch_cpus.iq.FU_type_0::SimdShift            0      0.00%     72.80% # Type of FU issued
system.switch_cpus.iq.FU_type_0::SimdShiftAcc            0      0.00%     72.80% # Type of FU issued
system.switch_cpus.iq.FU_type_0::SimdDiv            0      0.00%     72.80% # Type of FU issued
system.switch_cpus.iq.FU_type_0::SimdSqrt            0      0.00%     72.80% # Type of FU issued
system.switch_cpus.iq.FU_type_0::SimdFloatAdd            0      0.00%     72.80% # Type of FU issued
system.switch_cpus.iq.FU_type_0::SimdFloatAlu            0      0.00%     72.80% # Type of FU issued
system.switch_cpus.iq.FU_type_0::SimdFloatCmp            0      0.00%     72.80% # Type of FU issued
system.switch_cpus.iq.FU_type_0::SimdFloatCvt            0      0.00%     72.80% # Type of FU issued
system.switch_cpus.iq.FU_type_0::SimdFloatDiv            0      0.00%     72.80% # Type of FU issued
system.switch_cpus.iq.FU_type_0::SimdFloatMisc            0      0.00%     72.80% # Type of FU issued
system.switch_cpus.iq.FU_type_0::SimdFloatMult            0      0.00%     72.80% # Type of FU issued
system.switch_cpus.iq.FU_type_0::SimdFloatMultAcc            0      0.00%     72.80% # Type of FU issued
system.switch_cpus.iq.FU_type_0::SimdFloatSqrt            0      0.00%     72.80% # Type of FU issued
system.switch_cpus.iq.FU_type_0::SimdReduceAdd            0      0.00%     72.80% # Type of FU issued
system.switch_cpus.iq.FU_type_0::SimdReduceAlu            0      0.00%     72.80% # Type of FU issued
system.switch_cpus.iq.FU_type_0::SimdReduceCmp            0      0.00%     72.80% # Type of FU issued
system.switch_cpus.iq.FU_type_0::SimdFloatReduceAdd            0      0.00%     72.80% # Type of FU issued
system.switch_cpus.iq.FU_type_0::SimdFloatReduceCmp            0      0.00%     72.80% # Type of FU issued
system.switch_cpus.iq.FU_type_0::SimdAes            0      0.00%     72.80% # Type of FU issued
system.switch_cpus.iq.FU_type_0::SimdAesMix            0      0.00%     72.80% # Type of FU issued
system.switch_cpus.iq.FU_type_0::SimdSha1Hash            0      0.00%     72.80% # Type of FU issued
system.switch_cpus.iq.FU_type_0::SimdSha1Hash2            0      0.00%     72.80% # Type of FU issued
system.switch_cpus.iq.FU_type_0::SimdSha256Hash            0      0.00%     72.80% # Type of FU issued
system.switch_cpus.iq.FU_type_0::SimdSha256Hash2            0      0.00%     72.80% # Type of FU issued
system.switch_cpus.iq.FU_type_0::SimdShaSigma2            0      0.00%     72.80% # Type of FU issued
system.switch_cpus.iq.FU_type_0::SimdShaSigma3            0      0.00%     72.80% # Type of FU issued
system.switch_cpus.iq.FU_type_0::SimdPredAlu            0      0.00%     72.80% # Type of FU issued
system.switch_cpus.iq.FU_type_0::MemRead      5056222     27.19%     99.98% # Type of FU issued
system.switch_cpus.iq.FU_type_0::MemWrite         2990      0.02%    100.00% # Type of FU issued
system.switch_cpus.iq.FU_type_0::FloatMemRead            0      0.00%    100.00% # Type of FU issued
system.switch_cpus.iq.FU_type_0::FloatMemWrite            0      0.00%    100.00% # Type of FU issued
system.switch_cpus.iq.FU_type_0::IprAccess            0      0.00%    100.00% # Type of FU issued
system.switch_cpus.iq.FU_type_0::InstPrefetch            0      0.00%    100.00% # Type of FU issued
system.switch_cpus.iq.FU_type_0::total       18597331                       # Type of FU issued
system.switch_cpus.iq.fp_alu_accesses               0                       # Number of floating point alu accesses
system.switch_cpus.iq.fp_inst_queue_reads            0                       # Number of floating instruction queue reads
system.switch_cpus.iq.fp_inst_queue_wakeup_accesses            0                       # Number of floating instruction queue wakeup accesses
system.switch_cpus.iq.fp_inst_queue_writes            0                       # Number of floating instruction queue writes
system.switch_cpus.iq.fu_busy_cnt                 248                       # FU busy when requested
system.switch_cpus.iq.fu_busy_rate           0.000013                       # FU busy rate (busy events/executed inst)
system.switch_cpus.iq.fu_full::No_OpClass            0      0.00%      0.00% # attempts to use FU when none available
system.switch_cpus.iq.fu_full::IntAlu               8      3.23%      3.23% # attempts to use FU when none available
system.switch_cpus.iq.fu_full::IntMult              0      0.00%      3.23% # attempts to use FU when none available
system.switch_cpus.iq.fu_full::IntDiv               0      0.00%      3.23% # attempts to use FU when none available
system.switch_cpus.iq.fu_full::FloatAdd             0      0.00%      3.23% # attempts to use FU when none available
system.switch_cpus.iq.fu_full::FloatCmp             0      0.00%      3.23% # attempts to use FU when none available
system.switch_cpus.iq.fu_full::FloatCvt             0      0.00%      3.23% # attempts to use FU when none available
system.switch_cpus.iq.fu_full::FloatMult            0      0.00%      3.23% # attempts to use FU when none available
system.switch_cpus.iq.fu_full::FloatMultAcc            0      0.00%      3.23% # attempts to use FU when none available
system.switch_cpus.iq.fu_full::FloatDiv             0      0.00%      3.23% # attempts to use FU when none available
system.switch_cpus.iq.fu_full::FloatMisc            0      0.00%      3.23% # attempts to use FU when none available
system.switch_cpus.iq.fu_full::FloatSqrt            0      0.00%      3.23% # attempts to use FU when none available
system.switch_cpus.iq.fu_full::SimdAdd              0      0.00%      3.23% # attempts to use FU when none available
system.switch_cpus.iq.fu_full::SimdAddAcc            0      0.00%      3.23% # attempts to use FU when none available
system.switch_cpus.iq.fu_full::SimdAlu              0      0.00%      3.23% # attempts to use FU when none available
system.switch_cpus.iq.fu_full::SimdCmp              0      0.00%      3.23% # attempts to use FU when none available
system.switch_cpus.iq.fu_full::SimdCvt              0      0.00%      3.23% # attempts to use FU when none available
system.switch_cpus.iq.fu_full::SimdMisc             0      0.00%      3.23% # attempts to use FU when none available
system.switch_cpus.iq.fu_full::SimdMult             0      0.00%      3.23% # attempts to use FU when none available
system.switch_cpus.iq.fu_full::SimdMultAcc            0      0.00%      3.23% # attempts to use FU when none available
system.switch_cpus.iq.fu_full::SimdShift            0      0.00%      3.23% # attempts to use FU when none available
system.switch_cpus.iq.fu_full::SimdShiftAcc            0      0.00%      3.23% # attempts to use FU when none available
system.switch_cpus.iq.fu_full::SimdDiv              0      0.00%      3.23% # attempts to use FU when none available
system.switch_cpus.iq.fu_full::SimdSqrt             0      0.00%      3.23% # attempts to use FU when none available
system.switch_cpus.iq.fu_full::SimdFloatAdd            0      0.00%      3.23% # attempts to use FU when none available
system.switch_cpus.iq.fu_full::SimdFloatAlu            0      0.00%      3.23% # attempts to use FU when none available
system.switch_cpus.iq.fu_full::SimdFloatCmp            0      0.00%      3.23% # attempts to use FU when none available
system.switch_cpus.iq.fu_full::SimdFloatCvt            0      0.00%      3.23% # attempts to use FU when none available
system.switch_cpus.iq.fu_full::SimdFloatDiv            0      0.00%      3.23% # attempts to use FU when none available
system.switch_cpus.iq.fu_full::SimdFloatMisc            0      0.00%      3.23% # attempts to use FU when none available
system.switch_cpus.iq.fu_full::SimdFloatMult            0      0.00%      3.23% # attempts to use FU when none available
system.switch_cpus.iq.fu_full::SimdFloatMultAcc            0      0.00%      3.23% # attempts to use FU when none available
system.switch_cpus.iq.fu_full::SimdFloatSqrt            0      0.00%      3.23% # attempts to use FU when none available
system.switch_cpus.iq.fu_full::SimdReduceAdd            0      0.00%      3.23% # attempts to use FU when none available
system.switch_cpus.iq.fu_full::SimdReduceAlu            0      0.00%      3.23% # attempts to use FU when none available
system.switch_cpus.iq.fu_full::SimdReduceCmp            0      0.00%      3.23% # attempts to use FU when none available
system.switch_cpus.iq.fu_full::SimdFloatReduceAdd            0      0.00%      3.23% # attempts to use FU when none available
system.switch_cpus.iq.fu_full::SimdFloatReduceCmp            0      0.00%      3.23% # attempts to use FU when none available
system.switch_cpus.iq.fu_full::SimdAes              0      0.00%      3.23% # attempts to use FU when none available
system.switch_cpus.iq.fu_full::SimdAesMix            0      0.00%      3.23% # attempts to use FU when none available
system.switch_cpus.iq.fu_full::SimdSha1Hash            0      0.00%      3.23% # attempts to use FU when none available
system.switch_cpus.iq.fu_full::SimdSha1Hash2            0      0.00%      3.23% # attempts to use FU when none available
system.switch_cpus.iq.fu_full::SimdSha256Hash            0      0.00%      3.23% # attempts to use FU when none available
system.switch_cpus.iq.fu_full::SimdSha256Hash2            0      0.00%      3.23% # attempts to use FU when none available
system.switch_cpus.iq.fu_full::SimdShaSigma2            0      0.00%      3.23% # attempts to use FU when none available
system.switch_cpus.iq.fu_full::SimdShaSigma3            0      0.00%      3.23% # attempts to use FU when none available
system.switch_cpus.iq.fu_full::SimdPredAlu            0      0.00%      3.23% # attempts to use FU when none available
system.switch_cpus.iq.fu_full::MemRead            132     53.23%     56.45% # attempts to use FU when none available
system.switch_cpus.iq.fu_full::MemWrite           108     43.55%    100.00% # attempts to use FU when none available
system.switch_cpus.iq.fu_full::FloatMemRead            0      0.00%    100.00% # attempts to use FU when none available
system.switch_cpus.iq.fu_full::FloatMemWrite            0      0.00%    100.00% # attempts to use FU when none available
system.switch_cpus.iq.fu_full::IprAccess            0      0.00%    100.00% # attempts to use FU when none available
system.switch_cpus.iq.fu_full::InstPrefetch            0      0.00%    100.00% # attempts to use FU when none available
system.switch_cpus.iq.int_alu_accesses       18597442                       # Number of integer alu accesses
system.switch_cpus.iq.int_inst_queue_reads    260942785                       # Number of integer instruction queue reads
system.switch_cpus.iq.int_inst_queue_wakeup_accesses     18566947                       # Number of integer instruction queue wakeup accesses
system.switch_cpus.iq.int_inst_queue_writes     20022750                       # Number of integer instruction queue writes
system.switch_cpus.iq.iqInstsAdded           19137647                       # Number of instructions added to the IQ (excludes non-spec)
system.switch_cpus.iq.iqInstsIssued          18597331                       # Number of instructions issued
system.switch_cpus.iq.iqSquashedInstsExamined       885097                       # Number of squashed instructions iterated over during squash; mainly for profiling
system.switch_cpus.iq.iqSquashedInstsIssued          145                       # Number of squashed instructions issued
system.switch_cpus.iq.iqSquashedOperandsExamined      2021391                       # Number of squashed operands that are examined and possibly removed from graph
system.switch_cpus.iq.issued_per_cycle::samples    223747730                       # Number of insts issued each cycle
system.switch_cpus.iq.issued_per_cycle::mean     0.083117                       # Number of insts issued each cycle
system.switch_cpus.iq.issued_per_cycle::stdev     0.366736                       # Number of insts issued each cycle
system.switch_cpus.iq.issued_per_cycle::underflows            0      0.00%      0.00% # Number of insts issued each cycle
system.switch_cpus.iq.issued_per_cycle::0    210296124     93.99%     93.99% # Number of insts issued each cycle
system.switch_cpus.iq.issued_per_cycle::1      9557980      4.27%     98.26% # Number of insts issued each cycle
system.switch_cpus.iq.issued_per_cycle::2      2752430      1.23%     99.49% # Number of insts issued each cycle
system.switch_cpus.iq.issued_per_cycle::3      1040280      0.46%     99.95% # Number of insts issued each cycle
system.switch_cpus.iq.issued_per_cycle::4        92369      0.04%    100.00% # Number of insts issued each cycle
system.switch_cpus.iq.issued_per_cycle::5         7566      0.00%    100.00% # Number of insts issued each cycle
system.switch_cpus.iq.issued_per_cycle::6          672      0.00%    100.00% # Number of insts issued each cycle
system.switch_cpus.iq.issued_per_cycle::7          159      0.00%    100.00% # Number of insts issued each cycle
system.switch_cpus.iq.issued_per_cycle::8          150      0.00%    100.00% # Number of insts issued each cycle
system.switch_cpus.iq.issued_per_cycle::overflows            0      0.00%    100.00% # Number of insts issued each cycle
system.switch_cpus.iq.issued_per_cycle::min_value            0                       # Number of insts issued each cycle
system.switch_cpus.iq.issued_per_cycle::max_value            8                       # Number of insts issued each cycle
system.switch_cpus.iq.issued_per_cycle::total    223747730                       # Number of insts issued each cycle
system.switch_cpus.iq.rate                   0.083117                       # Inst issue rate
system.switch_cpus.iq.vec_alu_accesses              0                       # Number of vector alu accesses
system.switch_cpus.iq.vec_inst_queue_reads            0                       # Number of vector instruction queue reads
system.switch_cpus.iq.vec_inst_queue_wakeup_accesses            0                       # Number of vector instruction queue wakeup accesses
system.switch_cpus.iq.vec_inst_queue_writes            0                       # Number of vector instruction queue writes
system.switch_cpus.itb.rdAccesses                   0                       # TLB accesses on read requests
system.switch_cpus.itb.rdMisses                     0                       # TLB misses on read requests
system.switch_cpus.itb.wrAccesses             1600806                       # TLB accesses on write requests
system.switch_cpus.itb.wrMisses                    14                       # TLB misses on write requests
system.switch_cpus.memDep0.conflictingLoads          918                       # Number of conflicting loads.
system.switch_cpus.memDep0.conflictingStores          307                       # Number of conflicting stores.
system.switch_cpus.memDep0.insertedLoads      5240910                       # Number of loads inserted to the mem dependence unit.
system.switch_cpus.memDep0.insertedStores         5793                       # Number of stores inserted to the mem dependence unit.
system.switch_cpus.misc_regfile_reads        10177071                       # number of misc regfile reads
system.switch_cpus.misc_regfile_writes              1                       # number of misc regfile writes
system.switch_cpus.numCycles                223748833                       # number of cpu cycles simulated
system.switch_cpus.numWorkItemsCompleted            0                       # number of work items this cpu completed
system.switch_cpus.numWorkItemsStarted              0                       # number of work items this cpu started
system.switch_cpus.rename.BlockCycles       210838874                       # Number of cycles rename is blocking
system.switch_cpus.rename.CommittedMaps      24003739                       # Number of HB maps that are committed
system.switch_cpus.rename.IQFullEvents        9692272                       # Number of times rename has blocked due to IQ full
system.switch_cpus.rename.IdleCycles          1135452                       # Number of cycles rename is idle
system.switch_cpus.rename.LQFullEvents              6                       # Number of times rename has blocked due to LQ full
system.switch_cpus.rename.ROBFullEvents          7665                       # Number of times rename has blocked due to ROB full
system.switch_cpus.rename.RenameLookups      49870575                       # Number of register rename lookups that rename has made
system.switch_cpus.rename.RenamedInsts       19162808                       # Number of instructions processed by rename
system.switch_cpus.rename.RenamedOperands     25201531                       # Number of destination operands rename has renamed
system.switch_cpus.rename.RunCycles           1412389                       # Number of cycles rename is running
system.switch_cpus.rename.SquashCycles           9783                       # Number of cycles rename is squashing
system.switch_cpus.rename.UnblockCycles      10351224                       # Number of cycles rename is unblocking
system.switch_cpus.rename.UndoneMaps          1197661                       # Number of HB maps that are undone due to squashing
system.switch_cpus.rename.int_rename_lookups     25343671                       # Number of integer rename lookups
system.switch_cpus.rename.serializeStallCycles            0                       # count of cycles rename stalled for serializing inst
system.switch_cpus.rename.serializingInsts            0                       # count of serializing insts renamed
system.switch_cpus.rename.skidInsts          15585715                       # count of insts added to the skid buffer
system.switch_cpus.rename.tempSerializingInsts            0                       # count of temporary serializing insts renamed
system.switch_cpus.rob.rob_reads            242769194                       # The number of ROB reads
system.switch_cpus.rob.rob_writes            38390993                       # The number of ROB writes
system.switch_cpus.timesIdled                      14                       # Number of times that the entire CPU went into an idle state and unscheduled itself
system.tol2bus.snoop_filter.hit_multi_requests            0                       # Number of requests hitting in the snoop filter with multiple (>1) holders of the requested data.
system.tol2bus.snoop_filter.hit_multi_snoops            0                       # Number of snoops hitting in the snoop filter with multiple (>1) holders of the requested data.
system.tol2bus.snoop_filter.hit_single_requests      3043854                       # Number of requests hitting in the snoop filter with a single holder of the requested data.
system.tol2bus.snoop_filter.hit_single_snoops        77854                       # Number of snoops hitting in the snoop filter with a single holder of the requested data.
system.tol2bus.snoop_filter.tot_requests      6088752                       # Total number of requests made to the snoop filter.
system.tol2bus.snoop_filter.tot_snoops          77854                       # Total number of snoops made to the snoop filter.
system.membus.pwrStateResidencyTicks::UNDEFINED 258574675971500                       # Cumulative time (in ticks) in various power states
system.membus.trans_dist::ReadResp            3044599                       # Transaction distribution
system.membus.trans_dist::WritebackDirty          444                       # Transaction distribution
system.membus.trans_dist::CleanEvict          3040261                       # Transaction distribution
system.membus.trans_dist::ReadExReq               221                       # Transaction distribution
system.membus.trans_dist::ReadExResp              221                       # Transaction distribution
system.membus.trans_dist::ReadSharedReq       3044599                       # Transaction distribution
system.membus.pkt_count_system.l2.mem_side::system.mem_ctrls.port      9130345                       # Packet count per connected master and slave (bytes)
system.membus.pkt_count_system.l2.mem_side::total      9130345                       # Packet count per connected master and slave (bytes)
system.membus.pkt_count::total                9130345                       # Packet count per connected master and slave (bytes)
system.membus.pkt_size_system.l2.mem_side::system.mem_ctrls.port    194896896                       # Cumulative packet size per connected master and slave (bytes)
system.membus.pkt_size_system.l2.mem_side::total    194896896                       # Cumulative packet size per connected master and slave (bytes)
system.membus.pkt_size::total               194896896                       # Cumulative packet size per connected master and slave (bytes)
system.membus.snoops                                0                       # Total snoops (count)
system.membus.snoopTraffic                          0                       # Total snoop traffic (bytes)
system.membus.snoop_fanout::samples           3044820                       # Request fanout histogram
system.membus.snoop_fanout::mean                    0                       # Request fanout histogram
system.membus.snoop_fanout::stdev                   0                       # Request fanout histogram
system.membus.snoop_fanout::underflows              0      0.00%      0.00% # Request fanout histogram
system.membus.snoop_fanout::0                 3044820    100.00%    100.00% # Request fanout histogram
system.membus.snoop_fanout::1                       0      0.00%    100.00% # Request fanout histogram
system.membus.snoop_fanout::overflows               0      0.00%    100.00% # Request fanout histogram
system.membus.snoop_fanout::min_value               0                       # Request fanout histogram
system.membus.snoop_fanout::max_value               0                       # Request fanout histogram
system.membus.snoop_fanout::total             3044820                       # Request fanout histogram
system.membus.reqLayer2.occupancy          6955910000                       # Layer occupancy (ticks)
system.membus.reqLayer2.utilization               6.2                       # Layer utilization (%)
system.membus.respLayer1.occupancy        15810637250                       # Layer occupancy (ticks)
system.membus.respLayer1.utilization             14.1                       # Layer utilization (%)
system.switch_cpus.pwrStateResidencyTicks::OFF 111874426500                       # Cumulative time (in ticks) in various power states
system.switch_cpus.dtb.walker.pwrStateResidencyTicks::UNDEFINED 258574675971500                       # Cumulative time (in ticks) in various power states
system.switch_cpus.itb.walker.pwrStateResidencyTicks::UNDEFINED 258574675971500                       # Cumulative time (in ticks) in various power states
system.tol2bus.pwrStateResidencyTicks::UNDEFINED 258574675971500                       # Cumulative time (in ticks) in various power states
system.tol2bus.trans_dist::ReadResp           3044674                       # Transaction distribution
system.tol2bus.trans_dist::WritebackDirty          896                       # Transaction distribution
system.tol2bus.trans_dist::CleanEvict         6083743                       # Transaction distribution
system.tol2bus.trans_dist::ReadExReq              221                       # Transaction distribution
system.tol2bus.trans_dist::ReadExResp             221                       # Transaction distribution
system.tol2bus.trans_dist::ReadCleanReq            17                       # Transaction distribution
system.tol2bus.trans_dist::ReadSharedReq      3044660                       # Transaction distribution
system.tol2bus.pkt_count_system.cpu.icache.mem_side::system.l2.cpu_side           34                       # Packet count per connected master and slave (bytes)
system.tol2bus.pkt_count_system.cpu.dcache.mem_side::system.l2.cpu_side      9133613                       # Packet count per connected master and slave (bytes)
system.tol2bus.pkt_count::total               9133647                       # Packet count per connected master and slave (bytes)
system.tol2bus.pkt_size_system.cpu.icache.mem_side::system.l2.cpu_side         1088                       # Cumulative packet size per connected master and slave (bytes)
system.tol2bus.pkt_size_system.cpu.dcache.mem_side::system.l2.cpu_side    194901120                       # Cumulative packet size per connected master and slave (bytes)
system.tol2bus.pkt_size::total              194902208                       # Cumulative packet size per connected master and slave (bytes)
system.tol2bus.snoops                         3040785                       # Total snoops (count)
system.tol2bus.snoopTraffic                     28416                       # Total snoop traffic (bytes)
system.tol2bus.snoop_fanout::samples          6085683                       # Request fanout histogram
system.tol2bus.snoop_fanout::mean            0.012793                       # Request fanout histogram
system.tol2bus.snoop_fanout::stdev           0.112380                       # Request fanout histogram
system.tol2bus.snoop_fanout::underflows             0      0.00%      0.00% # Request fanout histogram
system.tol2bus.snoop_fanout::0                6007829     98.72%     98.72% # Request fanout histogram
system.tol2bus.snoop_fanout::1                  77854      1.28%    100.00% # Request fanout histogram
system.tol2bus.snoop_fanout::2                      0      0.00%    100.00% # Request fanout histogram
system.tol2bus.snoop_fanout::3                      0      0.00%    100.00% # Request fanout histogram
system.tol2bus.snoop_fanout::4                      0      0.00%    100.00% # Request fanout histogram
system.tol2bus.snoop_fanout::overflows              0      0.00%    100.00% # Request fanout histogram
system.tol2bus.snoop_fanout::min_value              0                       # Request fanout histogram
system.tol2bus.snoop_fanout::max_value              1                       # Request fanout histogram
system.tol2bus.snoop_fanout::total            6085683                       # Request fanout histogram
system.tol2bus.reqLayer0.occupancy         3044824500                       # Layer occupancy (ticks)
system.tol2bus.reqLayer0.utilization              2.7                       # Layer utilization (%)
system.tol2bus.respLayer1.occupancy        4567309500                       # Layer occupancy (ticks)
system.tol2bus.respLayer1.utilization             4.1                       # Layer utilization (%)
system.tol2bus.respLayer0.occupancy             22500                       # Layer occupancy (ticks)
system.tol2bus.respLayer0.utilization             0.0                       # Layer utilization (%)
system.voltage_domain.voltage                       1                       # Voltage in Volts
system.clk_domain.clock                          1000                       # Clock period in ticks
system.l2.pwrStateResidencyTicks::UNDEFINED 258574675971500                       # Cumulative time (in ticks) in various power states
system.l2.demand_hits::.switch_cpus.data           76                       # number of demand (read+write) hits
system.l2.demand_hits::total                       76                       # number of demand (read+write) hits
system.l2.overall_hits::.switch_cpus.data           76                       # number of overall hits
system.l2.overall_hits::total                      76                       # number of overall hits
system.l2.demand_misses::.cpu.inst                  2                       # number of demand (read+write) misses
system.l2.demand_misses::.cpu.data                  5                       # number of demand (read+write) misses
system.l2.demand_misses::.switch_cpus.inst           15                       # number of demand (read+write) misses
system.l2.demand_misses::.switch_cpus.data      3044800                       # number of demand (read+write) misses
system.l2.demand_misses::total                3044822                       # number of demand (read+write) misses
system.l2.overall_misses::.cpu.inst                 2                       # number of overall misses
system.l2.overall_misses::.cpu.data                 5                       # number of overall misses
system.l2.overall_misses::.switch_cpus.inst           15                       # number of overall misses
system.l2.overall_misses::.switch_cpus.data      3044800                       # number of overall misses
system.l2.overall_misses::total               3044822                       # number of overall misses
system.l2.demand_miss_latency::.switch_cpus.inst      1175500                       # number of demand (read+write) miss cycles
system.l2.demand_miss_latency::.switch_cpus.data 243526782000                       # number of demand (read+write) miss cycles
system.l2.demand_miss_latency::total     243527957500                       # number of demand (read+write) miss cycles
system.l2.overall_miss_latency::.switch_cpus.inst      1175500                       # number of overall miss cycles
system.l2.overall_miss_latency::.switch_cpus.data 243526782000                       # number of overall miss cycles
system.l2.overall_miss_latency::total    243527957500                       # number of overall miss cycles
system.l2.demand_accesses::.cpu.inst                2                       # number of demand (read+write) accesses
system.l2.demand_accesses::.cpu.data                5                       # number of demand (read+write) accesses
system.l2.demand_accesses::.switch_cpus.inst           15                       # number of demand (read+write) accesses
system.l2.demand_accesses::.switch_cpus.data      3044876                       # number of demand (read+write) accesses
system.l2.demand_accesses::total              3044898                       # number of demand (read+write) accesses
system.l2.overall_accesses::.cpu.inst               2                       # number of overall (read+write) accesses
system.l2.overall_accesses::.cpu.data               5                       # number of overall (read+write) accesses
system.l2.overall_accesses::.switch_cpus.inst           15                       # number of overall (read+write) accesses
system.l2.overall_accesses::.switch_cpus.data      3044876                       # number of overall (read+write) accesses
system.l2.overall_accesses::total             3044898                       # number of overall (read+write) accesses
system.l2.demand_miss_rate::.cpu.inst               1                       # miss rate for demand accesses
system.l2.demand_miss_rate::.cpu.data               1                       # miss rate for demand accesses
system.l2.demand_miss_rate::.switch_cpus.inst            1                       # miss rate for demand accesses
system.l2.demand_miss_rate::.switch_cpus.data     0.999975                       # miss rate for demand accesses
system.l2.demand_miss_rate::total            0.999975                       # miss rate for demand accesses
system.l2.overall_miss_rate::.cpu.inst              1                       # miss rate for overall accesses
system.l2.overall_miss_rate::.cpu.data              1                       # miss rate for overall accesses
system.l2.overall_miss_rate::.switch_cpus.inst            1                       # miss rate for overall accesses
system.l2.overall_miss_rate::.switch_cpus.data     0.999975                       # miss rate for overall accesses
system.l2.overall_miss_rate::total           0.999975                       # miss rate for overall accesses
system.l2.demand_avg_miss_latency::.switch_cpus.inst 78366.666667                       # average overall miss latency
system.l2.demand_avg_miss_latency::.switch_cpus.data 79981.207961                       # average overall miss latency
system.l2.demand_avg_miss_latency::total 79981.016132                       # average overall miss latency
system.l2.overall_avg_miss_latency::.switch_cpus.inst 78366.666667                       # average overall miss latency
system.l2.overall_avg_miss_latency::.switch_cpus.data 79981.207961                       # average overall miss latency
system.l2.overall_avg_miss_latency::total 79981.016132                       # average overall miss latency
system.l2.blocked_cycles::no_mshrs                  0                       # number of cycles access was blocked
system.l2.blocked_cycles::no_targets                0                       # number of cycles access was blocked
system.l2.blocked::no_mshrs                         0                       # number of cycles access was blocked
system.l2.blocked::no_targets                       0                       # number of cycles access was blocked
system.l2.avg_blocked_cycles::no_mshrs            nan                       # average number of cycles each access was blocked
system.l2.avg_blocked_cycles::no_targets          nan                       # average number of cycles each access was blocked
system.l2.writebacks::.writebacks                 444                       # number of writebacks
system.l2.writebacks::total                       444                       # number of writebacks
system.l2.demand_mshr_misses::.switch_cpus.inst           15                       # number of demand (read+write) MSHR misses
system.l2.demand_mshr_misses::.switch_cpus.data      3044800                       # number of demand (read+write) MSHR misses
system.l2.demand_mshr_misses::total           3044815                       # number of demand (read+write) MSHR misses
system.l2.overall_mshr_misses::.switch_cpus.inst           15                       # number of overall MSHR misses
system.l2.overall_mshr_misses::.switch_cpus.data      3044800                       # number of overall MSHR misses
system.l2.overall_mshr_misses::total          3044815                       # number of overall MSHR misses
system.l2.demand_mshr_miss_latency::.switch_cpus.inst      1025500                       # number of demand (read+write) MSHR miss cycles
system.l2.demand_mshr_miss_latency::.switch_cpus.data 213078802000                       # number of demand (read+write) MSHR miss cycles
system.l2.demand_mshr_miss_latency::total 213079827500                       # number of demand (read+write) MSHR miss cycles
system.l2.overall_mshr_miss_latency::.switch_cpus.inst      1025500                       # number of overall MSHR miss cycles
system.l2.overall_mshr_miss_latency::.switch_cpus.data 213078802000                       # number of overall MSHR miss cycles
system.l2.overall_mshr_miss_latency::total 213079827500                       # number of overall MSHR miss cycles
system.l2.demand_mshr_miss_rate::.switch_cpus.inst            1                       # mshr miss rate for demand accesses
system.l2.demand_mshr_miss_rate::.switch_cpus.data     0.999975                       # mshr miss rate for demand accesses
system.l2.demand_mshr_miss_rate::total       0.999973                       # mshr miss rate for demand accesses
system.l2.overall_mshr_miss_rate::.switch_cpus.inst            1                       # mshr miss rate for overall accesses
system.l2.overall_mshr_miss_rate::.switch_cpus.data     0.999975                       # mshr miss rate for overall accesses
system.l2.overall_mshr_miss_rate::total      0.999973                       # mshr miss rate for overall accesses
system.l2.demand_avg_mshr_miss_latency::.switch_cpus.inst 68366.666667                       # average overall mshr miss latency
system.l2.demand_avg_mshr_miss_latency::.switch_cpus.data 69981.214530                       # average overall mshr miss latency
system.l2.demand_avg_mshr_miss_latency::total 69981.206576                       # average overall mshr miss latency
system.l2.overall_avg_mshr_miss_latency::.switch_cpus.inst 68366.666667                       # average overall mshr miss latency
system.l2.overall_avg_mshr_miss_latency::.switch_cpus.data 69981.214530                       # average overall mshr miss latency
system.l2.overall_avg_mshr_miss_latency::total 69981.206576                       # average overall mshr miss latency
system.l2.replacements                        3040785                       # number of replacements
system.l2.WritebackDirty_hits::.writebacks          452                       # number of WritebackDirty hits
system.l2.WritebackDirty_hits::total              452                       # number of WritebackDirty hits
system.l2.WritebackDirty_accesses::.writebacks          452                       # number of WritebackDirty accesses(hits+misses)
system.l2.WritebackDirty_accesses::total          452                       # number of WritebackDirty accesses(hits+misses)
system.l2.CleanEvict_mshr_misses::.writebacks        77775                       # number of CleanEvict MSHR misses
system.l2.CleanEvict_mshr_misses::total         77775                       # number of CleanEvict MSHR misses
system.l2.CleanEvict_mshr_miss_rate::.writebacks          inf                       # mshr miss rate for CleanEvict accesses
system.l2.CleanEvict_mshr_miss_rate::total          inf                       # mshr miss rate for CleanEvict accesses
system.l2.ReadExReq_misses::.switch_cpus.data          221                       # number of ReadExReq misses
system.l2.ReadExReq_misses::total                 221                       # number of ReadExReq misses
system.l2.ReadExReq_miss_latency::.switch_cpus.data     20864500                       # number of ReadExReq miss cycles
system.l2.ReadExReq_miss_latency::total      20864500                       # number of ReadExReq miss cycles
system.l2.ReadExReq_accesses::.switch_cpus.data          221                       # number of ReadExReq accesses(hits+misses)
system.l2.ReadExReq_accesses::total               221                       # number of ReadExReq accesses(hits+misses)
system.l2.ReadExReq_miss_rate::.switch_cpus.data            1                       # miss rate for ReadExReq accesses
system.l2.ReadExReq_miss_rate::total                1                       # miss rate for ReadExReq accesses
system.l2.ReadExReq_avg_miss_latency::.switch_cpus.data 94409.502262                       # average ReadExReq miss latency
system.l2.ReadExReq_avg_miss_latency::total 94409.502262                       # average ReadExReq miss latency
system.l2.ReadExReq_mshr_misses::.switch_cpus.data          221                       # number of ReadExReq MSHR misses
system.l2.ReadExReq_mshr_misses::total            221                       # number of ReadExReq MSHR misses
system.l2.ReadExReq_mshr_miss_latency::.switch_cpus.data     18654500                       # number of ReadExReq MSHR miss cycles
system.l2.ReadExReq_mshr_miss_latency::total     18654500                       # number of ReadExReq MSHR miss cycles
system.l2.ReadExReq_mshr_miss_rate::.switch_cpus.data            1                       # mshr miss rate for ReadExReq accesses
system.l2.ReadExReq_mshr_miss_rate::total            1                       # mshr miss rate for ReadExReq accesses
system.l2.ReadExReq_avg_mshr_miss_latency::.switch_cpus.data 84409.502262                       # average ReadExReq mshr miss latency
system.l2.ReadExReq_avg_mshr_miss_latency::total 84409.502262                       # average ReadExReq mshr miss latency
system.l2.ReadCleanReq_misses::.cpu.inst            2                       # number of ReadCleanReq misses
system.l2.ReadCleanReq_misses::.switch_cpus.inst           15                       # number of ReadCleanReq misses
system.l2.ReadCleanReq_misses::total               17                       # number of ReadCleanReq misses
system.l2.ReadCleanReq_miss_latency::.switch_cpus.inst      1175500                       # number of ReadCleanReq miss cycles
system.l2.ReadCleanReq_miss_latency::total      1175500                       # number of ReadCleanReq miss cycles
system.l2.ReadCleanReq_accesses::.cpu.inst            2                       # number of ReadCleanReq accesses(hits+misses)
system.l2.ReadCleanReq_accesses::.switch_cpus.inst           15                       # number of ReadCleanReq accesses(hits+misses)
system.l2.ReadCleanReq_accesses::total             17                       # number of ReadCleanReq accesses(hits+misses)
system.l2.ReadCleanReq_miss_rate::.cpu.inst            1                       # miss rate for ReadCleanReq accesses
system.l2.ReadCleanReq_miss_rate::.switch_cpus.inst            1                       # miss rate for ReadCleanReq accesses
system.l2.ReadCleanReq_miss_rate::total             1                       # miss rate for ReadCleanReq accesses
system.l2.ReadCleanReq_avg_miss_latency::.switch_cpus.inst 78366.666667                       # average ReadCleanReq miss latency
system.l2.ReadCleanReq_avg_miss_latency::total 69147.058824                       # average ReadCleanReq miss latency
system.l2.ReadCleanReq_mshr_misses::.switch_cpus.inst           15                       # number of ReadCleanReq MSHR misses
system.l2.ReadCleanReq_mshr_misses::total           15                       # number of ReadCleanReq MSHR misses
system.l2.ReadCleanReq_mshr_miss_latency::.switch_cpus.inst      1025500                       # number of ReadCleanReq MSHR miss cycles
system.l2.ReadCleanReq_mshr_miss_latency::total      1025500                       # number of ReadCleanReq MSHR miss cycles
system.l2.ReadCleanReq_mshr_miss_rate::.switch_cpus.inst            1                       # mshr miss rate for ReadCleanReq accesses
system.l2.ReadCleanReq_mshr_miss_rate::total     0.882353                       # mshr miss rate for ReadCleanReq accesses
system.l2.ReadCleanReq_avg_mshr_miss_latency::.switch_cpus.inst 68366.666667                       # average ReadCleanReq mshr miss latency
system.l2.ReadCleanReq_avg_mshr_miss_latency::total 68366.666667                       # average ReadCleanReq mshr miss latency
system.l2.ReadSharedReq_hits::.switch_cpus.data           76                       # number of ReadSharedReq hits
system.l2.ReadSharedReq_hits::total                76                       # number of ReadSharedReq hits
system.l2.ReadSharedReq_misses::.cpu.data            5                       # number of ReadSharedReq misses
system.l2.ReadSharedReq_misses::.switch_cpus.data      3044579                       # number of ReadSharedReq misses
system.l2.ReadSharedReq_misses::total         3044584                       # number of ReadSharedReq misses
system.l2.ReadSharedReq_miss_latency::.switch_cpus.data 243505917500                       # number of ReadSharedReq miss cycles
[...]
system.cpu.icache.tags.occ_percent::total     0.000057                       # Average percentage of cache occupancy
system.cpu.icache.tags.occ_task_id_blocks::1024           17                       # Occupied blocks per task id
system.cpu.icache.tags.age_task_id_blocks_1024::4           17                       # Occupied blocks per task id
system.cpu.icache.tags.occ_task_id_percent::1024     0.033203                       # Percentage of cache occupancy per task id
system.cpu.icache.tags.tag_accesses          12829649                       # Number of tag accesses
system.cpu.icache.tags.data_accesses         12829649                       # Number of data accesses
system.cpu.dtb.walker.pwrStateResidencyTicks::UNDEFINED 258905696406000                       # Cumulative time (in ticks) in various power states
system.cpu.interrupts.clk_domain.clock           8000                       # Clock period in ticks
system.cpu.itb_walker_cache.pwrStateResidencyTicks::UNDEFINED 258905696406000                       # Cumulative time (in ticks) in various power states
system.cpu.itb_walker_cache.blocked_cycles::no_mshrs            0                       # number of cycles access was blocked
system.cpu.itb_walker_cache.blocked_cycles::no_targets            0                       # number of cycles access was blocked
system.cpu.itb_walker_cache.blocked::no_mshrs            0                       # number of cycles access was blocked
system.cpu.itb_walker_cache.blocked::no_targets            0                       # number of cycles access was blocked
system.cpu.itb_walker_cache.avg_blocked_cycles::no_mshrs          nan                       # average number of cycles each access was blocked
system.cpu.itb_walker_cache.avg_blocked_cycles::no_targets          nan                       # average number of cycles each access was blocked
system.cpu.itb_walker_cache.replacements            0                       # number of replacements
system.cpu.itb_walker_cache.tags.pwrStateResidencyTicks::UNDEFINED 258905696406000                       # Cumulative time (in ticks) in various power states
system.cpu.itb_walker_cache.tags.tagsinuse            0                       # Cycle average of tags in use
system.cpu.itb_walker_cache.tags.total_refs            0                       # Total number of references to valid blocks.
system.cpu.itb_walker_cache.tags.sampled_refs            0                       # Sample count of references to valid blocks.
system.cpu.itb_walker_cache.tags.avg_refs          nan                       # Average number of references to valid blocks.
system.cpu.itb_walker_cache.tags.warmup_cycle            0                       # Cycle when the warmup percentage was hit.
system.cpu.itb_walker_cache.tags.tag_accesses            0                       # Number of tag accesses
system.cpu.itb_walker_cache.tags.data_accesses            0                       # Number of data accesses
system.cpu.itb.walker.pwrStateResidencyTicks::UNDEFINED 258905696406000                       # Cumulative time (in ticks) in various power states
system.cpu.dtb_walker_cache.pwrStateResidencyTicks::UNDEFINED 258905696406000                       # Cumulative time (in ticks) in various power states
system.cpu.dtb_walker_cache.blocked_cycles::no_mshrs            0                       # number of cycles access was blocked
system.cpu.dtb_walker_cache.blocked_cycles::no_targets            0                       # number of cycles access was blocked
system.cpu.dtb_walker_cache.blocked::no_mshrs            0                       # number of cycles access was blocked
system.cpu.dtb_walker_cache.blocked::no_targets            0                       # number of cycles access was blocked
system.cpu.dtb_walker_cache.avg_blocked_cycles::no_mshrs          nan                       # average number of cycles each access was blocked
system.cpu.dtb_walker_cache.avg_blocked_cycles::no_targets          nan                       # average number of cycles each access was blocked
system.cpu.dtb_walker_cache.replacements            0                       # number of replacements
system.cpu.dtb_walker_cache.tags.pwrStateResidencyTicks::UNDEFINED 258905696406000                       # Cumulative time (in ticks) in various power states
system.cpu.dtb_walker_cache.tags.tagsinuse            0                       # Cycle average of tags in use
system.cpu.dtb_walker_cache.tags.total_refs            0                       # Total number of references to valid blocks.
system.cpu.dtb_walker_cache.tags.sampled_refs            0                       # Sample count of references to valid blocks.
system.cpu.dtb_walker_cache.tags.avg_refs          nan                       # Average number of references to valid blocks.
system.cpu.dtb_walker_cache.tags.warmup_cycle            0                       # Cycle when the warmup percentage was hit.
system.cpu.dtb_walker_cache.tags.tag_accesses            0                       # Number of tag accesses
system.cpu.dtb_walker_cache.tags.data_accesses            0                       # Number of data accesses
system.cpu.dcache.pwrStateResidencyTicks::UNDEFINED 258905696406000                       # Cumulative time (in ticks) in various power states
system.cpu.dcache.demand_hits::.switch_cpus.data      7357740                       # number of demand (read+write) hits
system.cpu.dcache.demand_hits::total          7357740                       # number of demand (read+write) hits
system.cpu.dcache.overall_hits::.switch_cpus.data      7357740                       # number of overall hits
system.cpu.dcache.overall_hits::total         7357740                       # number of overall hits
system.cpu.dcache.demand_misses::.cpu.data            5                       # number of demand (read+write) misses
system.cpu.dcache.demand_misses::.switch_cpus.data     12819936                       # number of demand (read+write) misses
system.cpu.dcache.demand_misses::total       12819941                       # number of demand (read+write) misses
system.cpu.dcache.overall_misses::.cpu.data            5                       # number of overall misses
system.cpu.dcache.overall_misses::.switch_cpus.data     12819936                       # number of overall misses
system.cpu.dcache.overall_misses::total      12819941                       # number of overall misses
system.cpu.dcache.demand_miss_latency::.switch_cpus.data 1056196849500                       # number of demand (read+write) miss cycles
system.cpu.dcache.demand_miss_latency::total 1056196849500                       # number of demand (read+write) miss cycles
system.cpu.dcache.overall_miss_latency::.switch_cpus.data 1056196849500                       # number of overall miss cycles
system.cpu.dcache.overall_miss_latency::total 1056196849500                       # number of overall miss cycles
system.cpu.dcache.demand_accesses::.cpu.data            5                       # number of demand (read+write) accesses
system.cpu.dcache.demand_accesses::.switch_cpus.data     20177676                       # number of demand (read+write) accesses
system.cpu.dcache.demand_accesses::total     20177681                       # number of demand (read+write) accesses
system.cpu.dcache.overall_accesses::.cpu.data            5                       # number of overall (read+write) accesses
system.cpu.dcache.overall_accesses::.switch_cpus.data     20177676                       # number of overall (read+write) accesses
system.cpu.dcache.overall_accesses::total     20177681                       # number of overall (read+write) accesses
system.cpu.dcache.demand_miss_rate::.cpu.data            1                       # miss rate for demand accesses
system.cpu.dcache.demand_miss_rate::.switch_cpus.data     0.635352                       # miss rate for demand accesses
system.cpu.dcache.demand_miss_rate::total     0.635353                       # miss rate for demand accesses
system.cpu.dcache.overall_miss_rate::.cpu.data            1                       # miss rate for overall accesses
system.cpu.dcache.overall_miss_rate::.switch_cpus.data     0.635352                       # miss rate for overall accesses
system.cpu.dcache.overall_miss_rate::total     0.635353                       # miss rate for overall accesses
system.cpu.dcache.demand_avg_miss_latency::.switch_cpus.data 82387.061020                       # average overall miss latency
system.cpu.dcache.demand_avg_miss_latency::total 82387.028887                       # average overall miss latency
system.cpu.dcache.overall_avg_miss_latency::.switch_cpus.data 82387.061020                       # average overall miss latency
system.cpu.dcache.overall_avg_miss_latency::total 82387.028887                       # average overall miss latency
system.cpu.dcache.blocked_cycles::no_mshrs      5271293                       # number of cycles access was blocked
system.cpu.dcache.blocked_cycles::no_targets            0                       # number of cycles access was blocked
system.cpu.dcache.blocked::no_mshrs           1528478                       # number of cycles access was blocked
system.cpu.dcache.blocked::no_targets               0                       # number of cycles access was blocked
system.cpu.dcache.avg_blocked_cycles::no_mshrs     3.448720                       # average number of cycles each access was blocked
system.cpu.dcache.avg_blocked_cycles::no_targets          nan                       # average number of cycles each access was blocked
system.cpu.dcache.writebacks::.writebacks         1650                       # number of writebacks
system.cpu.dcache.writebacks::total              1650                       # number of writebacks
system.cpu.dcache.demand_mshr_hits::.switch_cpus.data       696379                       # number of demand (read+write) MSHR hits
system.cpu.dcache.demand_mshr_hits::total       696379                       # number of demand (read+write) MSHR hits
system.cpu.dcache.overall_mshr_hits::.switch_cpus.data       696379                       # number of overall MSHR hits
system.cpu.dcache.overall_mshr_hits::total       696379                       # number of overall MSHR hits
system.cpu.dcache.demand_mshr_misses::.switch_cpus.data     12123557                       # number of demand (read+write) MSHR misses
system.cpu.dcache.demand_mshr_misses::total     12123557                       # number of demand (read+write) MSHR misses
system.cpu.dcache.overall_mshr_misses::.switch_cpus.data     12123557                       # number of overall MSHR misses
system.cpu.dcache.overall_mshr_misses::total     12123557                       # number of overall MSHR misses
system.cpu.dcache.demand_mshr_miss_latency::.switch_cpus.data 990594818000                       # number of demand (read+write) MSHR miss cycles
system.cpu.dcache.demand_mshr_miss_latency::total 990594818000                       # number of demand (read+write) MSHR miss cycles
system.cpu.dcache.overall_mshr_miss_latency::.switch_cpus.data 990594818000                       # number of overall MSHR miss cycles
system.cpu.dcache.overall_mshr_miss_latency::total 990594818000                       # number of overall MSHR miss cycles
system.cpu.dcache.demand_mshr_miss_rate::.switch_cpus.data     0.600840                       # mshr miss rate for demand accesses
system.cpu.dcache.demand_mshr_miss_rate::total     0.600840                       # mshr miss rate for demand accesses
system.cpu.dcache.overall_mshr_miss_rate::.switch_cpus.data     0.600840                       # mshr miss rate for overall accesses
system.cpu.dcache.overall_mshr_miss_rate::total     0.600840                       # mshr miss rate for overall accesses
system.cpu.dcache.demand_avg_mshr_miss_latency::.switch_cpus.data 81708.265817                       # average overall mshr miss latency
system.cpu.dcache.demand_avg_mshr_miss_latency::total 81708.265817                       # average overall mshr miss latency
system.cpu.dcache.overall_avg_mshr_miss_latency::.switch_cpus.data 81708.265817                       # average overall mshr miss latency
system.cpu.dcache.overall_avg_mshr_miss_latency::total 81708.265817                       # average overall mshr miss latency
system.cpu.dcache.replacements               12122537                       # number of replacements
system.cpu.dcache.ReadReq_hits::.switch_cpus.data      7356918                       # number of ReadReq hits
system.cpu.dcache.ReadReq_hits::total         7356918                       # number of ReadReq hits
system.cpu.dcache.ReadReq_misses::.cpu.data            5                       # number of ReadReq misses
system.cpu.dcache.ReadReq_misses::.switch_cpus.data     12819116                       # number of ReadReq misses
system.cpu.dcache.ReadReq_misses::total      12819121                       # number of ReadReq misses
system.cpu.dcache.ReadReq_miss_latency::.switch_cpus.data 1056120662500                       # number of ReadReq miss cycles
system.cpu.dcache.ReadReq_miss_latency::total 1056120662500                       # number of ReadReq miss cycles
system.cpu.dcache.ReadReq_accesses::.cpu.data            5                       # number of ReadReq accesses(hits+misses)
system.cpu.dcache.ReadReq_accesses::.switch_cpus.data     20176034                       # number of ReadReq accesses(hits+misses)
system.cpu.dcache.ReadReq_accesses::total     20176039                       # number of ReadReq accesses(hits+misses)
system.cpu.dcache.ReadReq_miss_rate::.cpu.data            1                       # miss rate for ReadReq accesses
system.cpu.dcache.ReadReq_miss_rate::.switch_cpus.data     0.635364                       # miss rate for ReadReq accesses
system.cpu.dcache.ReadReq_miss_rate::total     0.635364                       # miss rate for ReadReq accesses
system.cpu.dcache.ReadReq_avg_miss_latency::.switch_cpus.data 82386.387837                       # average ReadReq miss latency
system.cpu.dcache.ReadReq_avg_miss_latency::total 82386.355703                       # average ReadReq miss latency
system.cpu.dcache.ReadReq_mshr_hits::.switch_cpus.data       696379                       # number of ReadReq MSHR hits
system.cpu.dcache.ReadReq_mshr_hits::total       696379                       # number of ReadReq MSHR hits
system.cpu.dcache.ReadReq_mshr_misses::.switch_cpus.data     12122737                       # number of ReadReq MSHR misses
system.cpu.dcache.ReadReq_mshr_misses::total     12122737                       # number of ReadReq MSHR misses
system.cpu.dcache.ReadReq_mshr_miss_latency::.switch_cpus.data 990519451000                       # number of ReadReq MSHR miss cycles
system.cpu.dcache.ReadReq_mshr_miss_latency::total 990519451000                       # number of ReadReq MSHR miss cycles
system.cpu.dcache.ReadReq_mshr_miss_rate::.switch_cpus.data     0.600848                       # mshr miss rate for ReadReq accesses
system.cpu.dcache.ReadReq_mshr_miss_rate::total     0.600848                       # mshr miss rate for ReadReq accesses
system.cpu.dcache.ReadReq_avg_mshr_miss_latency::.switch_cpus.data 81707.575690                       # average ReadReq mshr miss latency
system.cpu.dcache.ReadReq_avg_mshr_miss_latency::total 81707.575690                       # average ReadReq mshr miss latency
system.cpu.dcache.WriteReq_hits::.switch_cpus.data          822                       # number of WriteReq hits
system.cpu.dcache.WriteReq_hits::total            822                       # number of WriteReq hits
system.cpu.dcache.WriteReq_misses::.switch_cpus.data          820                       # number of WriteReq misses
system.cpu.dcache.WriteReq_misses::total          820                       # number of WriteReq misses
system.cpu.dcache.WriteReq_miss_latency::.switch_cpus.data     76187000                       # number of WriteReq miss cycles
system.cpu.dcache.WriteReq_miss_latency::total     76187000                       # number of WriteReq miss cycles
system.cpu.dcache.WriteReq_accesses::.switch_cpus.data         1642                       # number of WriteReq accesses(hits+misses)
system.cpu.dcache.WriteReq_accesses::total         1642                       # number of WriteReq accesses(hits+misses)
system.cpu.dcache.WriteReq_miss_rate::.switch_cpus.data     0.499391                       # miss rate for WriteReq accesses
system.cpu.dcache.WriteReq_miss_rate::total     0.499391                       # miss rate for WriteReq accesses
system.cpu.dcache.WriteReq_avg_miss_latency::.switch_cpus.data 92910.975610                       # average WriteReq miss latency
system.cpu.dcache.WriteReq_avg_miss_latency::total 92910.975610                       # average WriteReq miss latency
system.cpu.dcache.WriteReq_mshr_misses::.switch_cpus.data          820                       # number of WriteReq MSHR misses
system.cpu.dcache.WriteReq_mshr_misses::total          820                       # number of WriteReq MSHR misses
system.cpu.dcache.WriteReq_mshr_miss_latency::.switch_cpus.data     75367000                       # number of WriteReq MSHR miss cycles
system.cpu.dcache.WriteReq_mshr_miss_latency::total     75367000                       # number of WriteReq MSHR miss cycles
system.cpu.dcache.WriteReq_mshr_miss_rate::.switch_cpus.data     0.499391                       # mshr miss rate for WriteReq accesses
system.cpu.dcache.WriteReq_mshr_miss_rate::total     0.499391                       # mshr miss rate for WriteReq accesses
system.cpu.dcache.WriteReq_avg_mshr_miss_latency::.switch_cpus.data 91910.975610                       # average WriteReq mshr miss latency
system.cpu.dcache.WriteReq_avg_mshr_miss_latency::total 91910.975610                       # average WriteReq mshr miss latency
system.cpu.dcache.tags.pwrStateResidencyTicks::UNDEFINED 258905696406000                       # Cumulative time (in ticks) in various power states
system.cpu.dcache.tags.tagsinuse             1.751623                       # Cycle average of tags in use
system.cpu.dcache.tags.total_refs            19481301                       # Total number of references to valid blocks.
system.cpu.dcache.tags.sampled_refs          12123561                       # Sample count of references to valid blocks.
system.cpu.dcache.tags.avg_refs              1.606896                       # Average number of references to valid blocks.
system.cpu.dcache.tags.warmup_cycle      258462801546000                       # Cycle when the warmup percentage was hit.
system.cpu.dcache.tags.occ_blocks::.cpu.data     0.000002                       # Average occupied blocks per requestor
system.cpu.dcache.tags.occ_blocks::.switch_cpus.data     1.751622                       # Average occupied blocks per requestor
system.cpu.dcache.tags.occ_percent::.cpu.data     0.000000                       # Average percentage of cache occupancy
system.cpu.dcache.tags.occ_percent::.switch_cpus.data     0.001711                       # Average percentage of cache occupancy
system.cpu.dcache.tags.occ_percent::total     0.001711                       # Average percentage of cache occupancy
system.cpu.dcache.tags.occ_task_id_blocks::1024         1024                       # Occupied blocks per task id
system.cpu.dcache.tags.age_task_id_blocks_1024::0          239                       # Occupied blocks per task id
system.cpu.dcache.tags.age_task_id_blocks_1024::1          785                       # Occupied blocks per task id
system.cpu.dcache.tags.occ_task_id_percent::1024            1                       # Percentage of cache occupancy per task id
system.cpu.dcache.tags.tag_accesses          52478923                       # Number of tag accesses
system.cpu.dcache.tags.data_accesses         52478923                       # Number of data accesses

---------- End Simulation Statistics   ----------
