
---------- Begin Simulation Statistics ----------
final_tick                               371667982510500                       # Number of ticks from beginning of simulation (restored from checkpoints and never reset)
host_inst_rate                                  49490                       # Simulator instruction rate (inst/s)
host_mem_usage                                 899140                       # Number of bytes of host memory used
host_op_rate                                   110732                       # Simulator op (including micro ops) rate (op/s)
host_seconds                                   202.06                       # Real time elapsed on the host
host_tick_rate                               34086832                       # Simulator tick rate (ticks/s)
sim_freq                                 1000000000000                       # Frequency of simulated ticks
sim_insts                                    10000006                       # Number of instructions simulated
sim_ops                                      22374673                       # Number of ops (including micro ops) simulated
sim_seconds                                  0.006888                       # Number of seconds simulated
sim_ticks                                  6887628000                       # Number of ticks simulated
system.cpu.committedInsts                           5                       # Number of instructions committed
system.cpu.committedOps                            17                       # Number of ops (including micro ops) committed
system.cpu.dtb.rdAccesses                           8                       # TLB accesses on read requests
system.cpu.dtb.rdMisses                             0                       # TLB misses on read requests
system.cpu.dtb.wrAccesses                           0                       # TLB accesses on write requests
system.cpu.dtb.wrMisses                             0                       # TLB misses on write requests
system.cpu.idle_fraction                            0                       # Percentage of idle cycles
system.cpu.itb.rdAccesses                           0                       # TLB accesses on read requests
system.cpu.itb.rdMisses                             0                       # TLB misses on read requests
system.cpu.itb.wrAccesses                          10                       # TLB accesses on write requests
system.cpu.itb.wrMisses                             0                       # TLB misses on write requests
system.cpu.not_idle_fraction                        1                       # Percentage of non-idle cycles
system.cpu.numCycles                               22                       # number of cpu cycles simulated
system.cpu.numWorkItemsCompleted                    0                       # number of work items this cpu completed
system.cpu.numWorkItemsStarted                      0                       # number of work items this cpu started
system.cpu.num_busy_cycles                         22                       # Number of busy cycles
system.cpu.num_conditional_control_insts            0                       # number of instructions that are conditional controls
system.cpu.num_fp_alu_accesses                     16                       # Number of float alu accesses
system.cpu.num_fp_insts                            16                       # number of float instructions
system.cpu.num_fp_register_reads                   24                       # number of times the floating registers were read
system.cpu.num_fp_register_writes                  16                       # number of times the floating registers were written
system.cpu.num_func_calls                           0                       # number of times a function call or return occured
system.cpu.num_idle_cycles                          0                       # Number of idle cycles
system.cpu.num_int_alu_accesses                     9                       # Number of integer alu accesses
system.cpu.num_int_insts                            9                       # number of integer instructions
system.cpu.num_int_register_reads                  25                       # number of times the integer registers were read
system.cpu.num_int_register_writes                  1                       # number of times the integer registers were written
system.cpu.num_load_insts                           8                       # Number of load instructions
system.cpu.num_mem_refs                             8                       # number of memory refs
system.cpu.num_store_insts                          0                       # Number of store instructions
system.cpu.num_vec_alu_accesses                     0                       # Number of vector alu accesses
system.cpu.num_vec_insts                            0                       # number of vector instructions
system.cpu.num_vec_register_reads                   0                       # number of times the vector registers were read
system.cpu.num_vec_register_writes                  0                       # number of times the vector registers were written
system.cpu.op_class::No_OpClass                     0      0.00%      0.00% # Class of executed instruction
system.cpu.op_class::IntAlu                         1      5.88%      5.88% # Class of executed instruction
system.cpu.op_class::IntMult                        0      0.00%      5.88% # Class of executed instruction
system.cpu.op_class::IntDiv                         0      0.00%      5.88% # Class of executed instruction
system.cpu.op_class::FloatAdd                       0      0.00%      5.88% # Class of executed instruction
system.cpu.op_class::FloatCmp                       0      0.00%      5.88% # Class of executed instruction
system.cpu.op_class::FloatCvt                       0      0.00%      5.88% # Class of executed instruction
system.cpu.op_class::FloatMult                      0      0.00%      5.88% # Class of executed instruction
system.cpu.op_class::FloatMultAcc                   0      0.00%      5.88% # Class of executed instruction
system.cpu.op_class::FloatDiv                       0      0.00%      5.88% # Class of executed instruction
system.cpu.op_class::FloatMisc                      0      0.00%      5.88% # Class of executed instruction
system.cpu.op_class::FloatSqrt                      0      0.00%      5.88% # Class of executed instruction
system.cpu.op_class::SimdAdd                        0      0.00%      5.88% # Class of executed instruction
system.cpu.op_class::SimdAddAcc                     0      0.00%      5.88% # Class of executed instruction
system.cpu.op_class::SimdAlu                        0      0.00%      5.88% # Class of executed instruction
system.cpu.op_class::SimdCmp                        0      0.00%      5.88% # Class of executed instruction
system.cpu.op_class::SimdCvt                        0      0.00%      5.88% # Class of executed instruction
system.cpu.op_class::SimdMisc                       0      0.00%      5.88% # Class of executed instruction
system.cpu.op_class::SimdMult                       0      0.00%      5.88% # Class of executed instruction
system.cpu.op_class::SimdMultAcc                    0      0.00%      5.88% # Class of executed instruction
system.cpu.op_class::SimdShift                      0      0.00%      5.88% # Class of executed instruction
system.cpu.op_class::SimdShiftAcc                   0      0.00%      5.88% # Class of executed instruction
system.cpu.op_class::SimdDiv                        0      0.00%      5.88% # Class of executed instruction
system.cpu.op_class::SimdSqrt                       0      0.00%      5.88% # Class of executed instruction
system.cpu.op_class::SimdFloatAdd                   4     23.53%     29.41% # Class of executed instruction
system.cpu.op_class::SimdFloatAlu                   0      0.00%     29.41% # Class of executed instruction
system.cpu.op_class::SimdFloatCmp                   0      0.00%     29.41% # Class of executed instruction
system.cpu.op_class::SimdFloatCvt                   0      0.00%     29.41% # Class of executed instruction
system.cpu.op_class::SimdFloatDiv                   0      0.00%     29.41% # Class of executed instruction
system.cpu.op_class::SimdFloatMisc                  0      0.00%     29.41% # Class of executed instruction
system.cpu.op_class::SimdFloatMult                  4     23.53%     52.94% # Class of executed instruction
system.cpu.op_class::SimdFloatMultAcc               0      0.00%     52.94% # Class of executed instruction
system.cpu.op_class::SimdFloatSqrt                  0      0.00%     52.94% # Class of executed instruction
system.cpu.op_class::SimdReduceAdd                  0      0.00%     52.94% # Class of executed instruction
system.cpu.op_class::SimdReduceAlu                  0      0.00%     52.94% # Class of executed instruction
system.cpu.op_class::SimdReduceCmp                  0      0.00%     52.94% # Class of executed instruction
system.cpu.op_class::SimdFloatReduceAdd             0      0.00%     52.94% # Class of executed instruction
system.cpu.op_class::SimdFloatReduceCmp             0      0.00%     52.94% # Class of executed instruction
system.cpu.op_class::SimdAes                        0      0.00%     52.94% # Class of executed instruction
system.cpu.op_class::SimdAesMix                     0      0.00%     52.94% # Class of executed instruction
system.cpu.op_class::SimdSha1Hash                   0      0.00%     52.94% # Class of executed instruction
system.cpu.op_class::SimdSha1Hash2                  0      0.00%     52.94% # Class of executed instruction
system.cpu.op_class::SimdSha256Hash                 0      0.00%     52.94% # Class of executed instruction
system.cpu.op_class::SimdSha256Hash2                0      0.00%     52.94% # Class of executed instruction
system.cpu.op_class::SimdShaSigma2                  0      0.00%     52.94% # Class of executed instruction
system.cpu.op_class::SimdShaSigma3                  0      0.00%     52.94% # Class of executed instruction
system.cpu.op_class::SimdPredAlu                    0      0.00%     52.94% # Class of executed instruction
system.cpu.op_class::MemRead                        0      0.00%     52.94% # Class of executed instruction
system.cpu.op_class::MemWrite                       0      0.00%     52.94% # Class of executed instruction
system.cpu.op_class::FloatMemRead                   8     47.06%    100.00% # Class of executed instruction
system.cpu.op_class::FloatMemWrite                  0      0.00%    100.00% # Class of executed instruction
system.cpu.op_class::IprAccess                      0      0.00%    100.00% # Class of executed instruction
system.cpu.op_class::InstPrefetch                   0      0.00%    100.00% # Class of executed instruction
system.cpu.op_class::total                         17                       # Class of executed instruction
system.cpu.workload.numSyscalls                     5                       # Number of system calls
system.membus.snoop_filter.hit_multi_requests            0                       # Number of requests hitting in the snoop filter with multiple (>1) holders of the requested data.
system.membus.snoop_filter.hit_multi_snoops            0                       # Number of snoops hitting in the snoop filter with multiple (>1) holders of the requested data.
system.membus.snoop_filter.hit_single_requests        65879                       # Number of requests hitting in the snoop filter with a single holder of the requested data.
system.membus.snoop_filter.hit_single_snoops            0                       # Number of snoops hitting in the snoop filter with a single holder of the requested data.
system.membus.snoop_filter.tot_requests        140498                       # Total number of requests made to the snoop filter.
system.membus.snoop_filter.tot_snoops               0                       # Total number of snoops made to the snoop filter.
system.switch_cpus.branchPred.BTBCorrect            0                       # Number of correct BTB predictions (this stat may not work properly.
system.switch_cpus.branchPred.BTBHitPct      0.000000                       # BTB Hit Percentage
system.switch_cpus.branchPred.BTBHits               0                       # Number of BTB hits
system.switch_cpus.branchPred.BTBLookups       129481                       # Number of BTB lookups
system.switch_cpus.branchPred.RASInCorrect           22                       # Number of incorrect RAS predictions.
system.switch_cpus.branchPred.condIncorrect         6699                       # Number of conditional branches incorrect
system.switch_cpus.branchPred.condPredicted       148486                       # Number of conditional branches predicted
system.switch_cpus.branchPred.indirectHits        69998                       # Number of indirect target hits.
system.switch_cpus.branchPred.indirectLookups       129481                       # Number of indirect predictor lookups.
system.switch_cpus.branchPred.indirectMisses        59483                       # Number of indirect misses.
system.switch_cpus.branchPred.lookups          180221                       # Number of BP lookups
system.switch_cpus.branchPred.usedRAS           18105                       # Number of times the RAS was used to get a target.
system.switch_cpus.branchPredindirectMispredicted         4273                       # Number of mispredicted indirect branches.
system.switch_cpus.cc_regfile_reads            719153                       # number of cc regfile reads
system.switch_cpus.cc_regfile_writes           611862                       # number of cc regfile writes
system.switch_cpus.commit.amos                      0                       # Number of atomic instructions committed
system.switch_cpus.commit.branchMispredicts         6845                       # The number of times a branch was mispredicted
system.switch_cpus.commit.branches             106288                       # Number of branches committed
system.switch_cpus.commit.bw_lim_events       1472215                       # number cycles where commit BW limit reached
system.switch_cpus.commit.commitNonSpecStalls          405                       # The number of times commit has been forced to stall to communicate backwards
system.switch_cpus.commit.commitSquashedInsts       793187                       # The number of squashed insts skipped by commit
system.switch_cpus.commit.committedInsts     10000001                       # Number of instructions committed
system.switch_cpus.commit.committedOps       22374656                       # Number of ops (including micro ops) committed
system.switch_cpus.commit.committed_per_cycle::samples     13547541                       # Number of insts commited each cycle
system.switch_cpus.commit.committed_per_cycle::mean     1.651566                       # Number of insts commited each cycle
system.switch_cpus.commit.committed_per_cycle::stdev     2.750638                       # Number of insts commited each cycle
system.switch_cpus.commit.committed_per_cycle::underflows            0      0.00%      0.00% # Number of insts commited each cycle
system.switch_cpus.commit.committed_per_cycle::0      8694274     64.18%     64.18% # Number of insts commited each cycle
system.switch_cpus.commit.committed_per_cycle::1       805691      5.95%     70.12% # Number of insts commited each cycle
system.switch_cpus.commit.committed_per_cycle::2       884238      6.53%     76.65% # Number of insts commited each cycle
system.switch_cpus.commit.committed_per_cycle::3       306820      2.26%     78.91% # Number of insts commited each cycle
system.switch_cpus.commit.committed_per_cycle::4       564173      4.16%     83.08% # Number of insts commited each cycle
system.switch_cpus.commit.committed_per_cycle::5       276955      2.04%     85.12% # Number of insts commited each cycle
system.switch_cpus.commit.committed_per_cycle::6       341383      2.52%     87.64% # Number of insts commited each cycle
system.switch_cpus.commit.committed_per_cycle::7       201792      1.49%     89.13% # Number of insts commited each cycle
system.switch_cpus.commit.committed_per_cycle::8      1472215     10.87%    100.00% # Number of insts commited each cycle
system.switch_cpus.commit.committed_per_cycle::overflows            0      0.00%    100.00% # Number of insts commited each cycle
system.switch_cpus.commit.committed_per_cycle::min_value            0                       # Number of insts commited each cycle
system.switch_cpus.commit.committed_per_cycle::max_value            8                       # Number of insts commited each cycle
system.switch_cpus.commit.committed_per_cycle::total     13547541                       # Number of insts commited each cycle
system.switch_cpus.commit.fp_insts           20559192                       # Number of committed floating point instructions.
system.switch_cpus.commit.function_calls         8242                       # Number of function calls committed.
system.switch_cpus.commit.int_insts          10716167                       # Number of committed integer instructions.
system.switch_cpus.commit.loads               7506752                       # Number of loads committed
system.switch_cpus.commit.membars                   0                       # Number of memory barriers committed
system.switch_cpus.commit.op_class_0::No_OpClass         3248      0.01%      0.01% # Class of committed instruction
system.switch_cpus.commit.op_class_0::IntAlu      3440241     15.38%     15.39% # Class of committed instruction
system.switch_cpus.commit.op_class_0::IntMult          647      0.00%     15.39% # Class of committed instruction
system.switch_cpus.commit.op_class_0::IntDiv          133      0.00%     15.39% # Class of committed instruction
system.switch_cpus.commit.op_class_0::FloatAdd          604      0.00%     15.40% # Class of committed instruction
system.switch_cpus.commit.op_class_0::FloatCmp            0      0.00%     15.40% # Class of committed instruction
system.switch_cpus.commit.op_class_0::FloatCvt            0      0.00%     15.40% # Class of committed instruction
system.switch_cpus.commit.op_class_0::FloatMult            0      0.00%     15.40% # Class of committed instruction
system.switch_cpus.commit.op_class_0::FloatMultAcc            0      0.00%     15.40% # Class of committed instruction
system.switch_cpus.commit.op_class_0::FloatDiv            0      0.00%     15.40% # Class of committed instruction
system.switch_cpus.commit.op_class_0::FloatMisc            0      0.00%     15.40% # Class of committed instruction
system.switch_cpus.commit.op_class_0::FloatSqrt            0      0.00%     15.40% # Class of committed instruction
system.switch_cpus.commit.op_class_0::SimdAdd          746      0.00%     15.40% # Class of committed instruction
system.switch_cpus.commit.op_class_0::SimdAddAcc            0      0.00%     15.40% # Class of committed instruction
system.switch_cpus.commit.op_class_0::SimdAlu        55789      0.25%     15.65% # Class of committed instruction
system.switch_cpus.commit.op_class_0::SimdCmp            0      0.00%     15.65% # Class of committed instruction
system.switch_cpus.commit.op_class_0::SimdCvt         4810      0.02%     15.67% # Class of committed instruction
system.switch_cpus.commit.op_class_0::SimdMisc         4991      0.02%     15.69% # Class of committed instruction
system.switch_cpus.commit.op_class_0::SimdMult            0      0.00%     15.69% # Class of committed instruction
system.switch_cpus.commit.op_class_0::SimdMultAcc            0      0.00%     15.69% # Class of committed instruction
system.switch_cpus.commit.op_class_0::SimdShift           32      0.00%     15.69% # Class of committed instruction
system.switch_cpus.commit.op_class_0::SimdShiftAcc            0      0.00%     15.69% # Class of committed instruction
system.switch_cpus.commit.op_class_0::SimdDiv            0      0.00%     15.69% # Class of committed instruction
system.switch_cpus.commit.op_class_0::SimdSqrt            0      0.00%     15.69% # Class of committed instruction
system.switch_cpus.commit.op_class_0::SimdFloatAdd      5262290     23.52%     39.21% # Class of committed instruction
system.switch_cpus.commit.op_class_0::SimdFloatAlu            0      0.00%     39.21% # Class of committed instruction
system.switch_cpus.commit.op_class_0::SimdFloatCmp            0      0.00%     39.21% # Class of committed instruction
system.switch_cpus.commit.op_class_0::SimdFloatCvt            0      0.00%     39.21% # Class of committed instruction
system.switch_cpus.commit.op_class_0::SimdFloatDiv        10955      0.05%     39.26% # Class of committed instruction
system.switch_cpus.commit.op_class_0::SimdFloatMisc            0      0.00%     39.26% # Class of committed instruction
system.switch_cpus.commit.op_class_0::SimdFloatMult      3855430     17.23%     56.49% # Class of committed instruction
system.switch_cpus.commit.op_class_0::SimdFloatMultAcc            0      0.00%     56.49% # Class of committed instruction
system.switch_cpus.commit.op_class_0::SimdFloatSqrt            0      0.00%     56.49% # Class of committed instruction
system.switch_cpus.commit.op_class_0::SimdReduceAdd            0      0.00%     56.49% # Class of committed instruction
system.switch_cpus.commit.op_class_0::SimdReduceAlu            0      0.00%     56.49% # Class of committed instruction
system.switch_cpus.commit.op_class_0::SimdReduceCmp            0      0.00%     56.49% # Class of committed instruction
system.switch_cpus.commit.op_class_0::SimdFloatReduceAdd            0      0.00%     56.49% # Class of committed instruction
system.switch_cpus.commit.op_class_0::SimdFloatReduceCmp            0      0.00%     56.49% # Class of committed instruction
system.switch_cpus.commit.op_class_0::SimdAes            0      0.00%     56.49% # Class of committed instruction
system.switch_cpus.commit.op_class_0::SimdAesMix            0      0.00%     56.49% # Class of committed instruction
system.switch_cpus.commit.op_class_0::SimdSha1Hash            0      0.00%     56.49% # Class of committed instruction
system.switch_cpus.commit.op_class_0::SimdSha1Hash2            0      0.00%     56.49% # Class of committed instruction
system.switch_cpus.commit.op_class_0::SimdSha256Hash            0      0.00%     56.49% # Class of committed instruction
system.switch_cpus.commit.op_class_0::SimdSha256Hash2            0      0.00%     56.49% # Class of committed instruction
system.switch_cpus.commit.op_class_0::SimdShaSigma2            0      0.00%     56.49% # Class of committed instruction
system.switch_cpus.commit.op_class_0::SimdShaSigma3            0      0.00%     56.49% # Class of committed instruction
system.switch_cpus.commit.op_class_0::SimdPredAlu            0      0.00%     56.49% # Class of committed instruction
system.switch_cpus.commit.op_class_0::MemRead       756767      3.38%     59.87% # Class of committed instruction
system.switch_cpus.commit.op_class_0::MemWrite        77584      0.35%     60.22% # Class of committed instruction
system.switch_cpus.commit.op_class_0::FloatMemRead      6749985     30.17%     90.39% # Class of committed instruction
system.switch_cpus.commit.op_class_0::FloatMemWrite      2150404      9.61%    100.00% # Class of committed instruction
system.switch_cpus.commit.op_class_0::IprAccess            0      0.00%    100.00% # Class of committed instruction
system.switch_cpus.commit.op_class_0::InstPrefetch            0      0.00%    100.00% # Class of committed instruction
system.switch_cpus.commit.op_class_0::total     22374656                       # Class of committed instruction
system.switch_cpus.commit.refs                9734740                       # Number of memory references committed
system.switch_cpus.commit.swp_count                 0                       # Number of s/w prefetches committed
system.switch_cpus.commit.vec_insts                 0                       # Number of committed Vector instructions.
system.switch_cpus.committedInsts            10000001                       # Number of Instructions Simulated
system.switch_cpus.committedOps              22374656                       # Number of Ops (including micro ops) Simulated
system.switch_cpus.cpi                       1.377523                       # CPI: Cycles Per Instruction
system.switch_cpus.cpi_total                 1.377523                       # CPI: Total CPI of All Threads
system.switch_cpus.decode.BlockedCycles       9747030                       # Number of cycles decode is blocked
system.switch_cpus.decode.DecodedInsts       23447227                       # Number of instructions handled by decode
system.switch_cpus.decode.IdleCycles           769783                       # Number of cycles decode is idle
system.switch_cpus.decode.RunCycles           2414679                       # Number of cycles decode is running
system.switch_cpus.decode.SquashCycles          13433                       # Number of cycles decode is squashing
system.switch_cpus.decode.UnblockCycles        709769                       # Number of cycles decode is unblocking
system.switch_cpus.dtb.rdAccesses             7694975                       # TLB accesses on read requests
system.switch_cpus.dtb.rdMisses                  1835                       # TLB misses on read requests
system.switch_cpus.dtb.wrAccesses             2375926                       # TLB accesses on write requests
system.switch_cpus.dtb.wrMisses                   745                       # TLB misses on write requests
system.switch_cpus.fetch.Branches              180221                       # Number of branches that fetch encountered
system.switch_cpus.fetch.CacheLines           1122823                       # Number of cache lines fetched
system.switch_cpus.fetch.Cycles              12446148                       # Number of cycles fetch has run and was not squashing or blocked
system.switch_cpus.fetch.IcacheSquashes          2153                       # Number of outstanding Icache misses that were squashed
system.switch_cpus.fetch.IcacheWaitRetryStallCycles           10                       # Number of stall cycles due to full MSHR
system.switch_cpus.fetch.Insts               10750980                       # Number of instructions fetch has processed
system.switch_cpus.fetch.MiscStallCycles          151                       # Number of cycles fetch has spent waiting on interrupts, or bad addresses, or out of MSHRs
system.switch_cpus.fetch.PendingTrapStallCycles         1046                       # Number of stall cycles due to pending traps
system.switch_cpus.fetch.SquashCycles           26866                       # Number of cycles fetch has spent squashing
system.switch_cpus.fetch.branchRate          0.013083                       # Number of branch fetches per cycle
system.switch_cpus.fetch.icacheStallCycles      1194243                       # Number of cycles fetch is stalled on an Icache miss
system.switch_cpus.fetch.predictedBranches        88103                       # Number of branches that fetch has predicted taken
system.switch_cpus.fetch.rate                0.780457                       # Number of inst fetches per cycle
system.switch_cpus.fetch.rateDist::samples     13655031                       # Number of instructions fetched each cycle (Total)
system.switch_cpus.fetch.rateDist::mean      1.738043                       # Number of instructions fetched each cycle (Total)
system.switch_cpus.fetch.rateDist::stdev     3.129528                       # Number of instructions fetched each cycle (Total)
system.switch_cpus.fetch.rateDist::underflows            0      0.00%      0.00% # Number of instructions fetched each cycle (Total)
system.switch_cpus.fetch.rateDist::0         10087966     73.88%     73.88% # Number of instructions fetched each cycle (Total)
system.switch_cpus.fetch.rateDist::1           114460      0.84%     74.72% # Number of instructions fetched each cycle (Total)
system.switch_cpus.fetch.rateDist::2           225532      1.65%     76.37% # Number of instructions fetched each cycle (Total)
system.switch_cpus.fetch.rateDist::3           174763      1.28%     77.65% # Number of instructions fetched each cycle (Total)
system.switch_cpus.fetch.rateDist::4           192542      1.41%     79.06% # Number of instructions fetched each cycle (Total)
system.switch_cpus.fetch.rateDist::5           150460      1.10%     80.16% # Number of instructions fetched each cycle (Total)
system.switch_cpus.fetch.rateDist::6           232033      1.70%     81.86% # Number of instructions fetched each cycle (Total)
system.switch_cpus.fetch.rateDist::7            89650      0.66%     82.51% # Number of instructions fetched each cycle (Total)
system.switch_cpus.fetch.rateDist::8          2387625     17.49%    100.00% # Number of instructions fetched each cycle (Total)
system.switch_cpus.fetch.rateDist::overflows            0      0.00%    100.00% # Number of instructions fetched each cycle (Total)
system.switch_cpus.fetch.rateDist::min_value            0                       # Number of instructions fetched each cycle (Total)
system.switch_cpus.fetch.rateDist::max_value            8                       # Number of instructions fetched each cycle (Total)
system.switch_cpus.fetch.rateDist::total     13655031                       # Number of instructions fetched each cycle (Total)
system.switch_cpus.fp_regfile_reads          34696118                       # number of floating regfile reads
system.switch_cpus.fp_regfile_writes         18488641                       # number of floating regfile writes
system.switch_cpus.idleCycles                  120203                       # Total number of cycles that the CPU has spent unscheduled due to idling
system.switch_cpus.iew.branchMispredicts         9113                       # Number of branch mispredicts detected at execute
system.switch_cpus.iew.exec_branches           138409                       # Number of branches executed
system.switch_cpus.iew.exec_nop                     0                       # number of nop insts executed
system.switch_cpus.iew.exec_rate             1.690678                       # Inst execution rate
system.switch_cpus.iew.exec_refs             10243229                       # number of memory reference insts executed
system.switch_cpus.iew.exec_stores            2375926                       # Number of stores executed
system.switch_cpus.iew.exec_swp                     0                       # number of swp insts executed
system.switch_cpus.iew.iewBlockCycles          209256                       # Number of cycles IEW is blocking
system.switch_cpus.iew.iewDispLoadInsts       7710536                       # Number of dispatched load instructions
system.switch_cpus.iew.iewDispNonSpecInsts            9                       # Number of dispatched non-speculative instructions
system.switch_cpus.iew.iewDispSquashedInsts          393                       # Number of squashed instructions skipped by dispatch
system.switch_cpus.iew.iewDispStoreInsts      2446147                       # Number of dispatched store instructions
system.switch_cpus.iew.iewDispatchedInsts     23285681                       # Number of instructions dispatched to IQ
system.switch_cpus.iew.iewExecLoadInsts       7867303                       # Number of load instructions executed
system.switch_cpus.iew.iewExecSquashedInsts        19197                       # Number of squashed instructions skipped in execute
system.switch_cpus.iew.iewExecutedInsts      23289481                       # Number of executed instructions
system.switch_cpus.iew.iewIQFullEvents           2273                       # Number of times the IQ has become full, causing a stall
system.switch_cpus.iew.iewIdleCycles                0                       # Number of cycles IEW is idle
system.switch_cpus.iew.iewLSQFullEvents       3252669                       # Number of times the LSQ has become full, causing a stall
system.switch_cpus.iew.iewSquashCycles          13433                       # Number of cycles IEW is squashing
system.switch_cpus.iew.iewUnblockCycles       3258418                       # Number of cycles IEW is unblocking
system.switch_cpus.iew.lsq.thread0.blockedLoads            0                       # Number of blocked loads due to partial load-store forwarding
system.switch_cpus.iew.lsq.thread0.cacheBlocked        34387                       # Number of times an access to memory failed due to the cache being blocked
system.switch_cpus.iew.lsq.thread0.forwLoads       607141                       # Number of loads that had data forwarded from stores
system.switch_cpus.iew.lsq.thread0.ignoredResponses          115                       # Number of memory responses ignored because the instruction is squashed
system.switch_cpus.iew.lsq.thread0.invAddrLoads            0                       # Number of loads ignored due to an invalid address
system.switch_cpus.iew.lsq.thread0.invAddrSwpfs            0                       # Number of software prefetches ignored due to an invalid address
system.switch_cpus.iew.lsq.thread0.memOrderViolation          286                       # Number of memory ordering violations
system.switch_cpus.iew.lsq.thread0.rescheduledLoads            0                       # Number of loads that were rescheduled
system.switch_cpus.iew.lsq.thread0.squashedLoads       203759                       # Number of loads squashed
system.switch_cpus.iew.lsq.thread0.squashedStores       218155                       # Number of stores squashed
system.switch_cpus.iew.memOrderViolationEvents          286                       # Number of memory order violations
system.switch_cpus.iew.predictedNotTakenIncorrect         7337                       # Number of branches that were predicted not taken incorrectly
system.switch_cpus.iew.predictedTakenIncorrect         1776                       # Number of branches that were predicted taken incorrectly
system.switch_cpus.iew.wb_consumers          28613778                       # num instructions consuming a value
system.switch_cpus.iew.wb_count              23045066                       # cumulative count of insts written-back
system.switch_cpus.iew.wb_fanout             0.607891                       # average fanout of values written-back
system.switch_cpus.iew.wb_producers          17394061                       # num instructions producing a value
system.switch_cpus.iew.wb_rate               1.672935                       # insts written-back per cycle
system.switch_cpus.iew.wb_sent               23101609                       # cumulative count of insts sent to commit
system.switch_cpus.int_regfile_reads         22022222                       # number of integer regfile reads
system.switch_cpus.int_regfile_writes         2042503                       # number of integer regfile writes
system.switch_cpus.ipc                       0.725941                       # IPC: Instructions Per Cycle
system.switch_cpus.ipc_total                 0.725941                       # IPC: Total IPC of All Threads
system.switch_cpus.iq.FU_type_0::No_OpClass        55519      0.24%      0.24% # Type of FU issued
system.switch_cpus.iq.FU_type_0::IntAlu       3802150     16.31%     16.55% # Type of FU issued
system.switch_cpus.iq.FU_type_0::IntMult          653      0.00%     16.55% # Type of FU issued
system.switch_cpus.iq.FU_type_0::IntDiv           140      0.00%     16.55% # Type of FU issued
system.switch_cpus.iq.FU_type_0::FloatAdd         3648      0.02%     16.57% # Type of FU issued
system.switch_cpus.iq.FU_type_0::FloatCmp            0      0.00%     16.57% # Type of FU issued
system.switch_cpus.iq.FU_type_0::FloatCvt            0      0.00%     16.57% # Type of FU issued
system.switch_cpus.iq.FU_type_0::FloatMult            0      0.00%     16.57% # Type of FU issued
system.switch_cpus.iq.FU_type_0::FloatMultAcc            0      0.00%     16.57% # Type of FU issued
system.switch_cpus.iq.FU_type_0::FloatDiv            0      0.00%     16.57% # Type of FU issued
system.switch_cpus.iq.FU_type_0::FloatMisc            0      0.00%     16.57% # Type of FU issued
system.switch_cpus.iq.FU_type_0::FloatSqrt            0      0.00%     16.57% # Type of FU issued
system.switch_cpus.iq.FU_type_0::SimdAdd          791      0.00%     16.57% # Type of FU issued
system.switch_cpus.iq.FU_type_0::SimdAddAcc            0      0.00%     16.57% # Type of FU issued
system.switch_cpus.iq.FU_type_0::SimdAlu        56876      0.24%     16.82% # Type of FU issued
system.switch_cpus.iq.FU_type_0::SimdCmp            0      0.00%     16.82% # Type of FU issued
system.switch_cpus.iq.FU_type_0::SimdCvt         5020      0.02%     16.84% # Type of FU issued
system.switch_cpus.iq.FU_type_0::SimdMisc         5160      0.02%     16.86% # Type of FU issued
system.switch_cpus.iq.FU_type_0::SimdMult            0      0.00%     16.86% # Type of FU issued
system.switch_cpus.iq.FU_type_0::SimdMultAcc            0      0.00%     16.86% # Type of FU issued
system.switch_cpus.iq.FU_type_0::SimdShift           71      0.00%     16.86% # Type of FU issued
system.switch_cpus.iq.FU_type_0::SimdShiftAcc            0      0.00%     16.86% # Type of FU issued
system.switch_cpus.iq.FU_type_0::SimdDiv            0      0.00%     16.86% # Type of FU issued
system.switch_cpus.iq.FU_type_0::SimdSqrt            0      0.00%     16.86% # Type of FU issued
system.switch_cpus.iq.FU_type_0::SimdFloatAdd      5262505     22.58%     39.44% # Type of FU issued
system.switch_cpus.iq.FU_type_0::SimdFloatAlu            0      0.00%     39.44% # Type of FU issued
system.switch_cpus.iq.FU_type_0::SimdFloatCmp            0      0.00%     39.44% # Type of FU issued
system.switch_cpus.iq.FU_type_0::SimdFloatCvt            0      0.00%     39.44% # Type of FU issued
system.switch_cpus.iq.FU_type_0::SimdFloatDiv        10955      0.05%     39.49% # Type of FU issued
system.switch_cpus.iq.FU_type_0::SimdFloatMisc            0      0.00%     39.49% # Type of FU issued
system.switch_cpus.iq.FU_type_0::SimdFloatMult      3855517     16.54%     56.03% # Type of FU issued
system.switch_cpus.iq.FU_type_0::SimdFloatMultAcc            0      0.00%     56.03% # Type of FU issued
system.switch_cpus.iq.FU_type_0::SimdFloatSqrt            0      0.00%     56.03% # Type of FU issued
system.switch_cpus.iq.FU_type_0::SimdReduceAdd            0      0.00%     56.03% # Type of FU issued
system.switch_cpus.iq.FU_type_0::SimdReduceAlu            0      0.00%     56.03% # Type of FU issued
system.switch_cpus.iq.FU_type_0::SimdReduceCmp            0      0.00%     56.03% # Type of FU issued
system.switch_cpus.iq.FU_type_0::SimdFloatReduceAdd            0      0.00%     56.03% # Type of FU issued
system.switch_cpus.iq.FU_type_0::SimdFloatReduceCmp            0      0.00%     56.03% # Type of FU issued
system.switch_cpus.iq.FU_type_0::SimdAes            0      0.00%     56.03% # Type of FU issued
system.switch_cpus.iq.FU_type_0::SimdAesMix            0      0.00%     56.03% # Type of FU issued
system.switch_cpus.iq.FU_type_0::SimdSha1Hash            0      0.00%     56.03% # Type of FU issued
system.switch_cpus.iq.FU_type_0::SimdSha1Hash2            0      0.00%     56.03% # Type of FU issued
system.switch_cpus.iq.FU_type_0::SimdSha256Hash            0      0.00%     56.03% # Type of FU issued
system.switch_cpus.iq.FU_type_0::SimdSha256Hash2            0      0.00%     56.03% # Type of FU issued
system.switch_cpus.iq.FU_type_0::SimdShaSigma2            0      0.00%     56.03% # Type of FU issued
system.switch_cpus.iq.FU_type_0::SimdShaSigma3            0      0.00%     56.03% # Type of FU issued
system.switch_cpus.iq.FU_type_0::SimdPredAlu            0      0.00%     56.03% # Type of FU issued
system.switch_cpus.iq.FU_type_0::MemRead       906493      3.89%     59.92% # Type of FU issued
system.switch_cpus.iq.FU_type_0::MemWrite       131657      0.56%     60.48% # Type of FU issued
system.switch_cpus.iq.FU_type_0::FloatMemRead      6965897     29.89%     90.37% # Type of FU issued
system.switch_cpus.iq.FU_type_0::FloatMemWrite      2245629      9.63%    100.00% # Type of FU issued
system.switch_cpus.iq.FU_type_0::IprAccess            0      0.00%    100.00% # Type of FU issued
system.switch_cpus.iq.FU_type_0::InstPrefetch            0      0.00%    100.00% # Type of FU issued
system.switch_cpus.iq.FU_type_0::total       23308681                       # Type of FU issued
system.switch_cpus.iq.fp_alu_accesses        21767569                       # Number of floating point alu accesses
system.switch_cpus.iq.fp_inst_queue_reads     42643412                       # Number of floating instruction queue reads
system.switch_cpus.iq.fp_inst_queue_wakeup_accesses     20736236                       # Number of floating instruction queue wakeup accesses
system.switch_cpus.iq.fp_inst_queue_writes     21029175                       # Number of floating instruction queue writes
system.switch_cpus.iq.fu_busy_cnt             1007038                       # FU busy when requested
system.switch_cpus.iq.fu_busy_rate           0.043204                       # FU busy rate (busy events/executed inst)
system.switch_cpus.iq.fu_full::No_OpClass            0      0.00%      0.00% # attempts to use FU when none available
system.switch_cpus.iq.fu_full::IntAlu           13324      1.32%      1.32% # attempts to use FU when none available
system.switch_cpus.iq.fu_full::IntMult              0      0.00%      1.32% # attempts to use FU when none available
system.switch_cpus.iq.fu_full::IntDiv               0      0.00%      1.32% # attempts to use FU when none available
system.switch_cpus.iq.fu_full::FloatAdd             0      0.00%      1.32% # attempts to use FU when none available
system.switch_cpus.iq.fu_full::FloatCmp             0      0.00%      1.32% # attempts to use FU when none available
system.switch_cpus.iq.fu_full::FloatCvt             0      0.00%      1.32% # attempts to use FU when none available
system.switch_cpus.iq.fu_full::FloatMult            0      0.00%      1.32% # attempts to use FU when none available
system.switch_cpus.iq.fu_full::FloatMultAcc            0      0.00%      1.32% # attempts to use FU when none available
system.switch_cpus.iq.fu_full::FloatDiv             0      0.00%      1.32% # attempts to use FU when none available
system.switch_cpus.iq.fu_full::FloatMisc            0      0.00%      1.32% # attempts to use FU when none available
system.switch_cpus.iq.fu_full::FloatSqrt            0      0.00%      1.32% # attempts to use FU when none available
system.switch_cpus.iq.fu_full::SimdAdd              0      0.00%      1.32% # attempts to use FU when none available
system.switch_cpus.iq.fu_full::SimdAddAcc            0      0.00%      1.32% # attempts to use FU when none available
system.switch_cpus.iq.fu_full::SimdAlu            729      0.07%      1.40% # attempts to use FU when none available
system.switch_cpus.iq.fu_full::SimdCmp              0      0.00%      1.40% # attempts to use FU when none available
system.switch_cpus.iq.fu_full::SimdCvt              0      0.00%      1.40% # attempts to use FU when none available
system.switch_cpus.iq.fu_full::SimdMisc           363      0.04%      1.43% # attempts to use FU when none available
system.switch_cpus.iq.fu_full::SimdMult             0      0.00%      1.43% # attempts to use FU when none available
system.switch_cpus.iq.fu_full::SimdMultAcc            0      0.00%      1.43% # attempts to use FU when none available
system.switch_cpus.iq.fu_full::SimdShift            0      0.00%      1.43% # attempts to use FU when none available
system.switch_cpus.iq.fu_full::SimdShiftAcc            0      0.00%      1.43% # attempts to use FU when none available
system.switch_cpus.iq.fu_full::SimdDiv              0      0.00%      1.43% # attempts to use FU when none available
system.switch_cpus.iq.fu_full::SimdSqrt             0      0.00%      1.43% # attempts to use FU when none available
system.switch_cpus.iq.fu_full::SimdFloatAdd       117951     11.71%     13.14% # attempts to use FU when none available
system.switch_cpus.iq.fu_full::SimdFloatAlu            0      0.00%     13.14% # attempts to use FU when none available
system.switch_cpus.iq.fu_full::SimdFloatCmp            0      0.00%     13.14% # attempts to use FU when none available
system.switch_cpus.iq.fu_full::SimdFloatCvt            0      0.00%     13.14% # attempts to use FU when none available
system.switch_cpus.iq.fu_full::SimdFloatDiv            0      0.00%     13.14% # attempts to use FU when none available
system.switch_cpus.iq.fu_full::SimdFloatMisc            0      0.00%     13.14% # attempts to use FU when none available
system.switch_cpus.iq.fu_full::SimdFloatMult       255678     25.39%     38.53% # attempts to use FU when none available
system.switch_cpus.iq.fu_full::SimdFloatMultAcc            0      0.00%     38.53% # attempts to use FU when none available
system.switch_cpus.iq.fu_full::SimdFloatSqrt            0      0.00%     38.53% # attempts to use FU when none available
system.switch_cpus.iq.fu_full::SimdReduceAdd            0      0.00%     38.53% # attempts to use FU when none available
system.switch_cpus.iq.fu_full::SimdReduceAlu            0      0.00%     38.53% # attempts to use FU when none available
system.switch_cpus.iq.fu_full::SimdReduceCmp            0      0.00%     38.53% # attempts to use FU when none available
system.switch_cpus.iq.fu_full::SimdFloatReduceAdd            0      0.00%     38.53% # attempts to use FU when none available
system.switch_cpus.iq.fu_full::SimdFloatReduceCmp            0      0.00%     38.53% # attempts to use FU when none available
system.switch_cpus.iq.fu_full::SimdAes              0      0.00%     38.53% # attempts to use FU when none available
system.switch_cpus.iq.fu_full::SimdAesMix            0      0.00%     38.53% # attempts to use FU when none available
system.switch_cpus.iq.fu_full::SimdSha1Hash            0      0.00%     38.53% # attempts to use FU when none available
system.switch_cpus.iq.fu_full::SimdSha1Hash2            0      0.00%     38.53% # attempts to use FU when none available
system.switch_cpus.iq.fu_full::SimdSha256Hash            0      0.00%     38.53% # attempts to use FU when none available
system.switch_cpus.iq.fu_full::SimdSha256Hash2            0      0.00%     38.53% # attempts to use FU when none available
system.switch_cpus.iq.fu_full::SimdShaSigma2            0      0.00%     38.53% # attempts to use FU when none available
system.switch_cpus.iq.fu_full::SimdShaSigma3            0      0.00%     38.53% # attempts to use FU when none available
system.switch_cpus.iq.fu_full::SimdPredAlu            0      0.00%     38.53% # attempts to use FU when none available
system.switch_cpus.iq.fu_full::MemRead          87026      8.64%     47.18% # attempts to use FU when none available
system.switch_cpus.iq.fu_full::MemWrite         14427      1.43%     48.61% # attempts to use FU when none available
system.switch_cpus.iq.fu_full::FloatMemRead       469396     46.61%     95.22% # attempts to use FU when none available
system.switch_cpus.iq.fu_full::FloatMemWrite        48144      4.78%    100.00% # attempts to use FU when none available
system.switch_cpus.iq.fu_full::IprAccess            0      0.00%    100.00% # attempts to use FU when none available
system.switch_cpus.iq.fu_full::InstPrefetch            0      0.00%    100.00% # attempts to use FU when none available
system.switch_cpus.iq.int_alu_accesses        2492631                       # Number of integer alu accesses
system.switch_cpus.iq.int_inst_queue_reads     18640002                       # Number of integer instruction queue reads
system.switch_cpus.iq.int_inst_queue_wakeup_accesses      2308830                       # Number of integer instruction queue wakeup accesses
system.switch_cpus.iq.int_inst_queue_writes      3167764                       # Number of integer instruction queue writes
system.switch_cpus.iq.iqInstsAdded           23280851                       # Number of instructions added to the IQ (excludes non-spec)
system.switch_cpus.iq.iqInstsIssued          23308681                       # Number of instructions issued
system.switch_cpus.iq.iqNonSpecInstsAdded         4830                       # Number of non-speculative instructions added to the IQ
system.switch_cpus.iq.iqSquashedInstsExamined       910980                       # Number of squashed instructions iterated over during squash; mainly for profiling
system.switch_cpus.iq.iqSquashedInstsIssued         3986                       # Number of squashed instructions issued
system.switch_cpus.iq.iqSquashedNonSpecRemoved         4425                       # Number of squashed non-spec instructions that were removed
system.switch_cpus.iq.iqSquashedOperandsExamined       628158                       # Number of squashed operands that are examined and possibly removed from graph
system.switch_cpus.iq.issued_per_cycle::samples     13655031                       # Number of insts issued each cycle
system.switch_cpus.iq.issued_per_cycle::mean     1.706967                       # Number of insts issued each cycle
system.switch_cpus.iq.issued_per_cycle::stdev     2.476408                       # Number of insts issued each cycle
system.switch_cpus.iq.issued_per_cycle::underflows            0      0.00%      0.00% # Number of insts issued each cycle
system.switch_cpus.iq.issued_per_cycle::0      8087582     59.23%     59.23% # Number of insts issued each cycle
system.switch_cpus.iq.issued_per_cycle::1       745477      5.46%     64.69% # Number of insts issued each cycle
system.switch_cpus.iq.issued_per_cycle::2       801353      5.87%     70.56% # Number of insts issued each cycle
system.switch_cpus.iq.issued_per_cycle::3       664713      4.87%     75.42% # Number of insts issued each cycle
system.switch_cpus.iq.issued_per_cycle::4       924862      6.77%     82.20% # Number of insts issued each cycle
system.switch_cpus.iq.issued_per_cycle::5       737267      5.40%     87.60% # Number of insts issued each cycle
system.switch_cpus.iq.issued_per_cycle::6       754013      5.52%     93.12% # Number of insts issued each cycle
system.switch_cpus.iq.issued_per_cycle::7       461614      3.38%     96.50% # Number of insts issued each cycle
system.switch_cpus.iq.issued_per_cycle::8       478150      3.50%    100.00% # Number of insts issued each cycle
system.switch_cpus.iq.issued_per_cycle::overflows            0      0.00%    100.00% # Number of insts issued each cycle
system.switch_cpus.iq.issued_per_cycle::min_value            0                       # Number of insts issued each cycle
system.switch_cpus.iq.issued_per_cycle::max_value            8                       # Number of insts issued each cycle
system.switch_cpus.iq.issued_per_cycle::total     13655031                       # Number of insts issued each cycle
system.switch_cpus.iq.rate                   1.692072                       # Inst issue rate
system.switch_cpus.iq.vec_alu_accesses              0                       # Number of vector alu accesses
system.switch_cpus.iq.vec_inst_queue_reads            0                       # Number of vector instruction queue reads
system.switch_cpus.iq.vec_inst_queue_wakeup_accesses            0                       # Number of vector instruction queue wakeup accesses
system.switch_cpus.iq.vec_inst_queue_writes            0                       # Number of vector instruction queue writes
system.switch_cpus.itb.rdAccesses                   0                       # TLB accesses on read requests
system.switch_cpus.itb.rdMisses                     0                       # TLB misses on read requests
system.switch_cpus.itb.wrAccesses             1122996                       # TLB accesses on write requests
system.switch_cpus.itb.wrMisses                   251                       # TLB misses on write requests
system.switch_cpus.memDep0.conflictingLoads        17467                       # Number of conflicting loads.
system.switch_cpus.memDep0.conflictingStores       108494                       # Number of conflicting stores.
system.switch_cpus.memDep0.insertedLoads      7710536                       # Number of loads inserted to the mem dependence unit.
system.switch_cpus.memDep0.insertedStores      2446147                       # Number of stores inserted to the mem dependence unit.
system.switch_cpus.misc_regfile_reads        10752377                       # number of misc regfile reads
system.switch_cpus.misc_regfile_writes              1                       # number of misc regfile writes
system.switch_cpus.numCycles                 13775234                       # number of cpu cycles simulated
system.switch_cpus.numWorkItemsCompleted            0                       # number of work items this cpu completed
system.switch_cpus.numWorkItemsStarted              0                       # number of work items this cpu started
system.switch_cpus.rename.BlockCycles         3536143                       # Number of cycles rename is blocking
system.switch_cpus.rename.CommittedMaps      20443121                       # Number of HB maps that are committed
system.switch_cpus.rename.IQFullEvents          88802                       # Number of times rename has blocked due to IQ full
system.switch_cpus.rename.IdleCycles          1094921                       # Number of cycles rename is idle
system.switch_cpus.rename.LQFullEvents        1024861                       # Number of times rename has blocked due to LQ full
system.switch_cpus.rename.ROBFullEvents         24145                       # Number of times rename has blocked due to ROB full
system.switch_cpus.rename.RenameLookups      68458214                       # Number of register rename lookups that rename has made
system.switch_cpus.rename.RenamedInsts       23365264                       # Number of instructions processed by rename
system.switch_cpus.rename.RenamedOperands     21365598                       # Number of destination operands rename has renamed
system.switch_cpus.rename.RunCycles           2790676                       # Number of cycles rename is running
system.switch_cpus.rename.SQFullEvents        4942500                       # Number of times rename has blocked due to SQ full
system.switch_cpus.rename.SquashCycles          13433                       # Number of cycles rename is squashing
system.switch_cpus.rename.UnblockCycles       6219453                       # Number of cycles rename is unblocking
system.switch_cpus.rename.UndoneMaps           922423                       # Number of HB maps that are undone due to squashing
system.switch_cpus.rename.fp_rename_lookups     34763029                       # Number of floating rename lookups
system.switch_cpus.rename.int_rename_lookups     22133406                       # Number of integer rename lookups
system.switch_cpus.rename.serializeStallCycles           68                       # count of cycles rename stalled for serializing inst
system.switch_cpus.rename.serializingInsts           15                       # count of serializing insts renamed
system.switch_cpus.rename.skidInsts           4301935                       # count of insts added to the skid buffer
system.switch_cpus.rename.tempSerializingInsts           15                       # count of temporary serializing insts renamed
system.switch_cpus.rob.rob_reads             35159969                       # The number of ROB reads
system.switch_cpus.rob.rob_writes            46443492                       # The number of ROB writes
system.switch_cpus.timesIdled                    1371                       # Number of times that the entire CPU went into an idle state and unscheduled itself
system.tol2bus.snoop_filter.hit_multi_requests            1                       # Number of requests hitting in the snoop filter with multiple (>1) holders of the requested data.
system.tol2bus.snoop_filter.hit_multi_snoops            0                       # Number of snoops hitting in the snoop filter with multiple (>1) holders of the requested data.
system.tol2bus.snoop_filter.hit_single_requests       119232                       # Number of requests hitting in the snoop filter with a single holder of the requested data.
system.tol2bus.snoop_filter.hit_single_snoops        38785                       # Number of snoops hitting in the snoop filter with a single holder of the requested data.
system.tol2bus.snoop_filter.tot_requests       240000                       # Total number of requests made to the snoop filter.
system.tol2bus.snoop_filter.tot_snoops          38785                       # Total number of snoops made to the snoop filter.
system.membus.pwrStateResidencyTicks::UNDEFINED 371667982510500                       # Cumulative time (in ticks) in various power states
system.membus.trans_dist::ReadResp              51591                       # Transaction distribution
system.membus.trans_dist::WritebackDirty        20786                       # Transaction distribution
system.membus.trans_dist::CleanEvict            45093                       # Transaction distribution
system.membus.trans_dist::ReadExReq             23028                       # Transaction distribution
system.membus.trans_dist::ReadExResp            23028                       # Transaction distribution
system.membus.trans_dist::ReadSharedReq         51591                       # Transaction distribution
system.membus.pkt_count_system.l2.mem_side::system.mem_ctrls.port       215117                       # Packet count per connected master and slave (bytes)
system.membus.pkt_count_system.l2.mem_side::total       215117                       # Packet count per connected master and slave (bytes)
system.membus.pkt_count::total                 215117                       # Packet count per connected master and slave (bytes)
system.membus.pkt_size_system.l2.mem_side::system.mem_ctrls.port      6105920                       # Cumulative packet size per connected master and slave (bytes)
system.membus.pkt_size_system.l2.mem_side::total      6105920                       # Cumulative packet size per connected master and slave (bytes)
system.membus.pkt_size::total                 6105920                       # Cumulative packet size per connected master and slave (bytes)
system.membus.snoops                                0                       # Total snoops (count)
system.membus.snoopTraffic                          0                       # Total snoop traffic (bytes)
system.membus.snoop_fanout::samples             74619                       # Request fanout histogram
system.membus.snoop_fanout::mean                    0                       # Request fanout histogram
system.membus.snoop_fanout::stdev                   0                       # Request fanout histogram
system.membus.snoop_fanout::underflows              0      0.00%      0.00% # Request fanout histogram
system.membus.snoop_fanout::0                   74619    100.00%    100.00% # Request fanout histogram
system.membus.snoop_fanout::1                       0      0.00%    100.00% # Request fanout histogram
system.membus.snoop_fanout::overflows               0      0.00%    100.00% # Request fanout histogram
system.membus.snoop_fanout::min_value               0                       # Request fanout histogram
system.membus.snoop_fanout::max_value               0                       # Request fanout histogram
system.membus.snoop_fanout::total               74619                       # Request fanout histogram
system.membus.reqLayer2.occupancy           238524500                       # Layer occupancy (ticks)
system.membus.reqLayer2.utilization               3.5                       # Layer utilization (%)
system.membus.respLayer1.occupancy          412499250                       # Layer occupancy (ticks)
system.membus.respLayer1.utilization              6.0                       # Layer utilization (%)
system.switch_cpus.pwrStateResidencyTicks::OFF   6887628000                       # Cumulative time (in ticks) in various power states
system.switch_cpus.dtb.walker.pwrStateResidencyTicks::UNDEFINED 371667982510500                       # Cumulative time (in ticks) in various power states
system.switch_cpus.itb.walker.pwrStateResidencyTicks::UNDEFINED 371667982510500                       # Cumulative time (in ticks) in various power states
system.tol2bus.pwrStateResidencyTicks::UNDEFINED 371667982510500                       # Cumulative time (in ticks) in various power states
system.tol2bus.trans_dist::ReadResp             85108                       # Transaction distribution
system.tol2bus.trans_dist::WritebackDirty        83634                       # Transaction distribution
system.tol2bus.trans_dist::WritebackClean         1759                       # Transaction distribution
system.tol2bus.trans_dist::CleanEvict          114521                       # Transaction distribution
system.tol2bus.trans_dist::ReadExReq            35658                       # Transaction distribution
system.tol2bus.trans_dist::ReadExResp           35658                       # Transaction distribution
system.tol2bus.trans_dist::ReadCleanReq          2269                       # Transaction distribution
system.tol2bus.trans_dist::ReadSharedReq        82841                       # Transaction distribution
system.tol2bus.pkt_count_system.cpu.icache.mem_side::system.l2.cpu_side         6297                       # Packet count per connected master and slave (bytes)
system.tol2bus.pkt_count_system.cpu.dcache.mem_side::system.l2.cpu_side       354469                       # Packet count per connected master and slave (bytes)
system.tol2bus.pkt_count::total                360766                       # Packet count per connected master and slave (bytes)
system.tol2bus.pkt_size_system.cpu.icache.mem_side::system.l2.cpu_side       257792                       # Cumulative packet size per connected master and slave (bytes)
system.tol2bus.pkt_size_system.cpu.dcache.mem_side::system.l2.cpu_side     11606080                       # Cumulative packet size per connected master and slave (bytes)
system.tol2bus.pkt_size::total               11863872                       # Cumulative packet size per connected master and slave (bytes)
system.tol2bus.snoops                           80682                       # Total snoops (count)
system.tol2bus.snoopTraffic                   1330304                       # Total snoop traffic (bytes)
system.tol2bus.snoop_fanout::samples           201450                       # Request fanout histogram
system.tol2bus.snoop_fanout::mean            0.192534                       # Request fanout histogram
system.tol2bus.snoop_fanout::stdev           0.394291                       # Request fanout histogram
system.tol2bus.snoop_fanout::underflows             0      0.00%      0.00% # Request fanout histogram
system.tol2bus.snoop_fanout::0                 162664     80.75%     80.75% # Request fanout histogram
system.tol2bus.snoop_fanout::1                  38786     19.25%    100.00% # Request fanout histogram
system.tol2bus.snoop_fanout::2                      0      0.00%    100.00% # Request fanout histogram
system.tol2bus.snoop_fanout::3                      0      0.00%    100.00% # Request fanout histogram
system.tol2bus.snoop_fanout::4                      0      0.00%    100.00% # Request fanout histogram
system.tol2bus.snoop_fanout::overflows              0      0.00%    100.00% # Request fanout histogram
system.tol2bus.snoop_fanout::min_value              0                       # Request fanout histogram
system.tol2bus.snoop_fanout::max_value              1                       # Request fanout histogram
system.tol2bus.snoop_fanout::total             201450                       # Request fanout histogram
system.tol2bus.reqLayer0.occupancy          184604000                       # Layer occupancy (ticks)
system.tol2bus.reqLayer0.utilization              2.7                       # Layer utilization (%)
system.tol2bus.respLayer1.occupancy         177740498                       # Layer occupancy (ticks)
system.tol2bus.respLayer1.utilization             2.6                       # Layer utilization (%)
system.tol2bus.respLayer0.occupancy           3401997                       # Layer occupancy (ticks)
system.tol2bus.respLayer0.utilization             0.0                       # Layer utilization (%)
system.voltage_domain.voltage                       1                       # Voltage in Volts
system.clk_domain.clock                          1000                       # Clock period in ticks
system.l2.pwrStateResidencyTicks::UNDEFINED 371667982510500                       # Cumulative time (in ticks) in various power states
system.l2.demand_hits::.switch_cpus.inst          921                       # number of demand (read+write) hits
system.l2.demand_hits::.switch_cpus.data        45228                       # number of demand (read+write) hits
system.l2.demand_hits::total                    46149                       # number of demand (read+write) hits
system.l2.overall_hits::.switch_cpus.inst          921                       # number of overall hits
system.l2.overall_hits::.switch_cpus.data        45228                       # number of overall hits
system.l2.overall_hits::total                   46149                       # number of overall hits
system.l2.demand_misses::.cpu.inst                  2                       # number of demand (read+write) misses
system.l2.demand_misses::.cpu.data                  4                       # number of demand (read+write) misses
system.l2.demand_misses::.switch_cpus.inst         1346                       # number of demand (read+write) misses
system.l2.demand_misses::.switch_cpus.data        73267                       # number of demand (read+write) misses
system.l2.demand_misses::total                  74619                       # number of demand (read+write) misses
system.l2.overall_misses::.cpu.inst                 2                       # number of overall misses
system.l2.overall_misses::.cpu.data                 4                       # number of overall misses
system.l2.overall_misses::.switch_cpus.inst         1346                       # number of overall misses
system.l2.overall_misses::.switch_cpus.data        73267                       # number of overall misses
system.l2.overall_misses::total                 74619                       # number of overall misses
system.l2.demand_miss_latency::.switch_cpus.inst    110187500                       # number of demand (read+write) miss cycles
system.l2.demand_miss_latency::.switch_cpus.data   7482123500                       # number of demand (read+write) miss cycles
system.l2.demand_miss_latency::total       7592311000                       # number of demand (read+write) miss cycles
system.l2.overall_miss_latency::.switch_cpus.inst    110187500                       # number of overall miss cycles
system.l2.overall_miss_latency::.switch_cpus.data   7482123500                       # number of overall miss cycles
system.l2.overall_miss_latency::total      7592311000                       # number of overall miss cycles
system.l2.demand_accesses::.cpu.inst                2                       # number of demand (read+write) accesses
system.l2.demand_accesses::.cpu.data                4                       # number of demand (read+write) accesses
system.l2.demand_accesses::.switch_cpus.inst         2267                       # number of demand (read+write) accesses
system.l2.demand_accesses::.switch_cpus.data       118495                       # number of demand (read+write) accesses
system.l2.demand_accesses::total               120768                       # number of demand (read+write) accesses
system.l2.overall_accesses::.cpu.inst               2                       # number of overall (read+write) accesses
system.l2.overall_accesses::.cpu.data               4                       # number of overall (read+write) accesses
system.l2.overall_accesses::.switch_cpus.inst         2267                       # number of overall (read+write) accesses
system.l2.overall_accesses::.switch_cpus.data       118495                       # number of overall (read+write) accesses
system.l2.overall_accesses::total              120768                       # number of overall (read+write) accesses
system.l2.demand_miss_rate::.cpu.inst               1                       # miss rate for demand accesses
system.l2.demand_miss_rate::.cpu.data               1                       # miss rate for demand accesses
system.l2.demand_miss_rate::.switch_cpus.inst     0.593736                       # miss rate for demand accesses
system.l2.demand_miss_rate::.switch_cpus.data     0.618313                       # miss rate for demand accesses
system.l2.demand_miss_rate::total            0.617871                       # miss rate for demand accesses
system.l2.overall_miss_rate::.cpu.inst              1                       # miss rate for overall accesses
system.l2.overall_miss_rate::.cpu.data              1                       # miss rate for overall accesses
system.l2.overall_miss_rate::.switch_cpus.inst     0.593736                       # miss rate for overall accesses
system.l2.overall_miss_rate::.switch_cpus.data     0.618313                       # miss rate for overall accesses
system.l2.overall_miss_rate::total           0.617871                       # miss rate for overall accesses
system.l2.demand_avg_miss_latency::.switch_cpus.inst 81862.927192                       # average overall miss latency
system.l2.demand_avg_miss_latency::.switch_cpus.data 102121.330203                       # average overall miss latency
system.l2.demand_avg_miss_latency::total 101747.691607                       # average overall miss latency
system.l2.overall_avg_miss_latency::.switch_cpus.inst 81862.927192                       # average overall miss latency
system.l2.overall_avg_miss_latency::.switch_cpus.data 102121.330203                       # average overall miss latency
system.l2.overall_avg_miss_latency::total 101747.691607                       # average overall miss latency
system.l2.blocked_cycles::no_mshrs                  0                       # number of cycles access was blocked
system.l2.blocked_cycles::no_targets                0                       # number of cycles access was blocked
system.l2.blocked::no_mshrs                         0                       # number of cycles access was blocked
system.l2.blocked::no_targets                       0                       # number of cycles access was blocked
system.l2.avg_blocked_cycles::no_mshrs            nan                       # average number of cycles each access was blocked
system.l2.avg_blocked_cycles::no_targets          nan                       # average number of cycles each access was blocked
system.l2.writebacks::.writebacks               20786                       # number of writebacks
system.l2.writebacks::total                     20786                       # number of writebacks
system.l2.demand_mshr_misses::.switch_cpus.inst         1346                       # number of demand (read+write) MSHR misses
system.l2.demand_mshr_misses::.switch_cpus.data        73267                       # number of demand (read+write) MSHR misses
system.l2.demand_mshr_misses::total             74613                       # number of demand (read+write) MSHR misses
system.l2.overall_mshr_misses::.switch_cpus.inst         1346                       # number of overall MSHR misses
system.l2.overall_mshr_misses::.switch_cpus.data        73267                       # number of overall MSHR misses
system.l2.overall_mshr_misses::total            74613                       # number of overall MSHR misses
system.l2.demand_mshr_miss_latency::.switch_cpus.inst     96727500                       # number of demand (read+write) MSHR miss cycles
system.l2.demand_mshr_miss_latency::.switch_cpus.data   6749453500                       # number of demand (read+write) MSHR miss cycles
system.l2.demand_mshr_miss_latency::total   6846181000                       # number of demand (read+write) MSHR miss cycles
system.l2.overall_mshr_miss_latency::.switch_cpus.inst     96727500                       # number of overall MSHR miss cycles
system.l2.overall_mshr_miss_latency::.switch_cpus.data   6749453500                       # number of overall MSHR miss cycles
system.l2.overall_mshr_miss_latency::total   6846181000                       # number of overall MSHR miss cycles
system.l2.demand_mshr_miss_rate::.switch_cpus.inst     0.593736                       # mshr miss rate for demand accesses
system.l2.demand_mshr_miss_rate::.switch_cpus.data     0.618313                       # mshr miss rate for demand accesses
system.l2.demand_mshr_miss_rate::total       0.617821                       # mshr miss rate for demand accesses
system.l2.overall_mshr_miss_rate::.switch_cpus.inst     0.593736                       # mshr miss rate for overall accesses
system.l2.overall_mshr_miss_rate::.switch_cpus.data     0.618313                       # mshr miss rate for overall accesses
system.l2.overall_mshr_miss_rate::total      0.617821                       # mshr miss rate for overall accesses
system.l2.demand_avg_mshr_miss_latency::.switch_cpus.inst 71862.927192                       # average overall mshr miss latency
system.l2.demand_avg_mshr_miss_latency::.switch_cpus.data 92121.330203                       # average overall mshr miss latency
system.l2.demand_avg_mshr_miss_latency::total 91755.873641                       # average overall mshr miss latency
system.l2.overall_avg_mshr_miss_latency::.switch_cpus.inst 71862.927192                       # average overall mshr miss latency
system.l2.overall_avg_mshr_miss_latency::.switch_cpus.data 92121.330203                       # average overall mshr miss latency
system.l2.overall_avg_mshr_miss_latency::total 91755.873641                       # average overall mshr miss latency
system.l2.replacements                          80682                       # number of replacements
system.l2.WritebackDirty_hits::.writebacks        62848                       # number of WritebackDirty hits
system.l2.WritebackDirty_hits::total            62848                       # number of WritebackDirty hits
system.l2.WritebackDirty_accesses::.writebacks        62848                       # number of WritebackDirty accesses(hits+misses)
system.l2.WritebackDirty_accesses::total        62848                       # number of WritebackDirty accesses(hits+misses)
system.l2.WritebackClean_hits::.writebacks         1758                       # number of WritebackClean hits
system.l2.WritebackClean_hits::total             1758                       # number of WritebackClean hits
system.l2.WritebackClean_accesses::.writebacks         1758                       # number of WritebackClean accesses(hits+misses)
system.l2.WritebackClean_accesses::total         1758                       # number of WritebackClean accesses(hits+misses)
system.l2.CleanEvict_mshr_misses::.writebacks        23982                       # number of CleanEvict MSHR misses
system.l2.CleanEvict_mshr_misses::total         23982                       # number of CleanEvict MSHR misses
system.l2.CleanEvict_mshr_miss_rate::.writebacks          inf                       # mshr miss rate for CleanEvict accesses
system.l2.CleanEvict_mshr_miss_rate::total          inf                       # mshr miss rate for CleanEvict accesses
system.l2.ReadExReq_hits::.switch_cpus.data        12630                       # number of ReadExReq hits
system.l2.ReadExReq_hits::total                 12630                       # number of ReadExReq hits
system.l2.ReadExReq_misses::.switch_cpus.data        23028                       # number of ReadExReq misses
system.l2.ReadExReq_misses::total               23028                       # number of ReadExReq misses
system.l2.ReadExReq_miss_latency::.switch_cpus.data   2248853000                       # number of ReadExReq miss cycles
system.l2.ReadExReq_miss_latency::total    2248853000                       # number of ReadExReq miss cycles
system.l2.ReadExReq_accesses::.switch_cpus.data        35658                       # number of ReadExReq accesses(hits+misses)
system.l2.ReadExReq_accesses::total             35658                       # number of ReadExReq accesses(hits+misses)
system.l2.ReadExReq_miss_rate::.switch_cpus.data     0.645802                       # miss rate for ReadExReq accesses
system.l2.ReadExReq_miss_rate::total         0.645802                       # miss rate for ReadExReq accesses
system.l2.ReadExReq_avg_miss_latency::.switch_cpus.data 97657.330207                       # average ReadExReq miss latency
system.l2.ReadExReq_avg_miss_latency::total 97657.330207                       # average ReadExReq miss latency
system.l2.ReadExReq_mshr_misses::.switch_cpus.data        23028                       # number of ReadExReq MSHR misses
system.l2.ReadExReq_mshr_misses::total          23028                       # number of ReadExReq MSHR misses
system.l2.ReadExReq_mshr_miss_latency::.switch_cpus.data   2018573000                       # number of ReadExReq MSHR miss cycles
system.l2.ReadExReq_mshr_miss_latency::total   2018573000                       # number of ReadExReq MSHR miss cycles
system.l2.ReadExReq_mshr_miss_rate::.switch_cpus.data     0.645802                       # mshr miss rate for ReadExReq accesses
system.l2.ReadExReq_mshr_miss_rate::total     0.645802                       # mshr miss rate for ReadExReq accesses
system.l2.ReadExReq_avg_mshr_miss_latency::.switch_cpus.data 87657.330207                       # average ReadExReq mshr miss latency
system.l2.ReadExReq_avg_mshr_miss_latency::total 87657.330207                       # average ReadExReq mshr miss latency
system.l2.ReadCleanReq_hits::.switch_cpus.inst          921                       # number of ReadCleanReq hits
system.l2.ReadCleanReq_hits::total                921                       # number of ReadCleanReq hits
system.l2.ReadCleanReq_misses::.cpu.inst            2                       # number of ReadCleanReq misses
system.l2.ReadCleanReq_misses::.switch_cpus.inst         1346                       # number of ReadCleanReq misses
system.l2.ReadCleanReq_misses::total             1348                       # number of ReadCleanReq misses
system.l2.ReadCleanReq_miss_latency::.switch_cpus.inst    110187500                       # number of ReadCleanReq miss cycles
system.l2.ReadCleanReq_miss_latency::total    110187500                       # number of ReadCleanReq miss cycles
system.l2.ReadCleanReq_accesses::.cpu.inst            2                       # number of ReadCleanReq accesses(hits+misses)
system.l2.ReadCleanReq_accesses::.switch_cpus.inst         2267                       # number of ReadCleanReq accesses(hits+misses)
system.l2.ReadCleanReq_accesses::total           2269                       # number of ReadCleanReq accesses(hits+misses)
system.l2.ReadCleanReq_miss_rate::.cpu.inst            1                       # miss rate for ReadCleanReq accesses
system.l2.ReadCleanReq_miss_rate::.switch_cpus.inst     0.593736                       # miss rate for ReadCleanReq accesses
system.l2.ReadCleanReq_miss_rate::total      0.594094                       # miss rate for ReadCleanReq accesses
system.l2.ReadCleanReq_avg_miss_latency::.switch_cpus.inst 81862.927192                       # average ReadCleanReq miss latency
[...]
system.cpu.itb_walker_cache.tags.tag_accesses            0                       # Number of tag accesses
system.cpu.itb_walker_cache.tags.data_accesses            0                       # Number of data accesses
system.cpu.itb.walker.pwrStateResidencyTicks::UNDEFINED 371685694562500                       # Cumulative time (in ticks) in various power states
system.cpu.dtb_walker_cache.pwrStateResidencyTicks::UNDEFINED 371685694562500                       # Cumulative time (in ticks) in various power states
system.cpu.dtb_walker_cache.blocked_cycles::no_mshrs            0                       # number of cycles access was blocked
system.cpu.dtb_walker_cache.blocked_cycles::no_targets            0                       # number of cycles access was blocked
system.cpu.dtb_walker_cache.blocked::no_mshrs            0                       # number of cycles access was blocked
system.cpu.dtb_walker_cache.blocked::no_targets            0                       # number of cycles access was blocked
system.cpu.dtb_walker_cache.avg_blocked_cycles::no_mshrs          nan                       # average number of cycles each access was blocked
system.cpu.dtb_walker_cache.avg_blocked_cycles::no_targets          nan                       # average number of cycles each access was blocked
system.cpu.dtb_walker_cache.replacements            0                       # number of replacements
system.cpu.dtb_walker_cache.tags.pwrStateResidencyTicks::UNDEFINED 371685694562500                       # Cumulative time (in ticks) in various power states
system.cpu.dtb_walker_cache.tags.tagsinuse            0                       # Cycle average of tags in use
system.cpu.dtb_walker_cache.tags.total_refs            0                       # Total number of references to valid blocks.
system.cpu.dtb_walker_cache.tags.sampled_refs            0                       # Sample count of references to valid blocks.
system.cpu.dtb_walker_cache.tags.avg_refs          nan                       # Average number of references to valid blocks.
system.cpu.dtb_walker_cache.tags.warmup_cycle            0                       # Cycle when the warmup percentage was hit.
system.cpu.dtb_walker_cache.tags.tag_accesses            0                       # Number of tag accesses
system.cpu.dtb_walker_cache.tags.data_accesses            0                       # Number of data accesses
system.cpu.dcache.pwrStateResidencyTicks::UNDEFINED 371685694562500                       # Cumulative time (in ticks) in various power states
system.cpu.dcache.demand_hits::.cpu.data            4                       # number of demand (read+write) hits
system.cpu.dcache.demand_hits::.switch_cpus.data     36723881                       # number of demand (read+write) hits
system.cpu.dcache.demand_hits::total         36723885                       # number of demand (read+write) hits
system.cpu.dcache.overall_hits::.cpu.data            4                       # number of overall hits
system.cpu.dcache.overall_hits::.switch_cpus.data     36779260                       # number of overall hits
system.cpu.dcache.overall_hits::total        36779264                       # number of overall hits
system.cpu.dcache.demand_misses::.cpu.data            4                       # number of demand (read+write) misses
system.cpu.dcache.demand_misses::.switch_cpus.data       665512                       # number of demand (read+write) misses
system.cpu.dcache.demand_misses::total         665516                       # number of demand (read+write) misses
system.cpu.dcache.overall_misses::.cpu.data            4                       # number of overall misses
system.cpu.dcache.overall_misses::.switch_cpus.data       683677                       # number of overall misses
system.cpu.dcache.overall_misses::total        683681                       # number of overall misses
system.cpu.dcache.demand_miss_latency::.switch_cpus.data  39280147318                       # number of demand (read+write) miss cycles
system.cpu.dcache.demand_miss_latency::total  39280147318                       # number of demand (read+write) miss cycles
system.cpu.dcache.overall_miss_latency::.switch_cpus.data  39280147318                       # number of overall miss cycles
system.cpu.dcache.overall_miss_latency::total  39280147318                       # number of overall miss cycles
system.cpu.dcache.demand_accesses::.cpu.data            8                       # number of demand (read+write) accesses
system.cpu.dcache.demand_accesses::.switch_cpus.data     37389393                       # number of demand (read+write) accesses
system.cpu.dcache.demand_accesses::total     37389401                       # number of demand (read+write) accesses
system.cpu.dcache.overall_accesses::.cpu.data            8                       # number of overall (read+write) accesses
system.cpu.dcache.overall_accesses::.switch_cpus.data     37462937                       # number of overall (read+write) accesses
system.cpu.dcache.overall_accesses::total     37462945                       # number of overall (read+write) accesses
system.cpu.dcache.demand_miss_rate::.cpu.data     0.500000                       # miss rate for demand accesses
system.cpu.dcache.demand_miss_rate::.switch_cpus.data     0.017799                       # miss rate for demand accesses
system.cpu.dcache.demand_miss_rate::total     0.017800                       # miss rate for demand accesses
system.cpu.dcache.overall_miss_rate::.cpu.data     0.500000                       # miss rate for overall accesses
system.cpu.dcache.overall_miss_rate::.switch_cpus.data     0.018249                       # miss rate for overall accesses
system.cpu.dcache.overall_miss_rate::total     0.018250                       # miss rate for overall accesses
system.cpu.dcache.demand_avg_miss_latency::.switch_cpus.data 59022.447857                       # average overall miss latency
system.cpu.dcache.demand_avg_miss_latency::total 59022.093110                       # average overall miss latency
system.cpu.dcache.overall_avg_miss_latency::.switch_cpus.data 57454.247134                       # average overall miss latency
system.cpu.dcache.overall_avg_miss_latency::total 57453.910988                       # average overall miss latency
system.cpu.dcache.blocked_cycles::no_mshrs      7453270                       # number of cycles access was blocked
system.cpu.dcache.blocked_cycles::no_targets           25                       # number of cycles access was blocked
system.cpu.dcache.blocked::no_mshrs            134079                       # number of cycles access was blocked
system.cpu.dcache.blocked::no_targets               1                       # number of cycles access was blocked
system.cpu.dcache.avg_blocked_cycles::no_mshrs    55.588646                       # average number of cycles each access was blocked
system.cpu.dcache.avg_blocked_cycles::no_targets           25                       # average number of cycles each access was blocked
system.cpu.dcache.writebacks::.writebacks       272637                       # number of writebacks
system.cpu.dcache.writebacks::total            272637                       # number of writebacks
system.cpu.dcache.demand_mshr_hits::.switch_cpus.data       219465                       # number of demand (read+write) MSHR hits
system.cpu.dcache.demand_mshr_hits::total       219465                       # number of demand (read+write) MSHR hits
system.cpu.dcache.overall_mshr_hits::.switch_cpus.data       219465                       # number of overall MSHR hits
system.cpu.dcache.overall_mshr_hits::total       219465                       # number of overall MSHR hits
system.cpu.dcache.demand_mshr_misses::.switch_cpus.data       446047                       # number of demand (read+write) MSHR misses
system.cpu.dcache.demand_mshr_misses::total       446047                       # number of demand (read+write) MSHR misses
system.cpu.dcache.overall_mshr_misses::.switch_cpus.data       451490                       # number of overall MSHR misses
system.cpu.dcache.overall_mshr_misses::total       451490                       # number of overall MSHR misses
system.cpu.dcache.demand_mshr_miss_latency::.switch_cpus.data  27730822318                       # number of demand (read+write) MSHR miss cycles
system.cpu.dcache.demand_mshr_miss_latency::total  27730822318                       # number of demand (read+write) MSHR miss cycles
system.cpu.dcache.overall_mshr_miss_latency::.switch_cpus.data  28169685318                       # number of overall MSHR miss cycles
system.cpu.dcache.overall_mshr_miss_latency::total  28169685318                       # number of overall MSHR miss cycles
system.cpu.dcache.demand_mshr_miss_rate::.switch_cpus.data     0.011930                       # mshr miss rate for demand accesses
system.cpu.dcache.demand_mshr_miss_rate::total     0.011930                       # mshr miss rate for demand accesses
system.cpu.dcache.overall_mshr_miss_rate::.switch_cpus.data     0.012052                       # mshr miss rate for overall accesses
system.cpu.dcache.overall_mshr_miss_rate::total     0.012052                       # mshr miss rate for overall accesses
system.cpu.dcache.demand_avg_mshr_miss_latency::.switch_cpus.data 62170.180089                       # average overall mshr miss latency
system.cpu.dcache.demand_avg_mshr_miss_latency::total 62170.180089                       # average overall mshr miss latency
system.cpu.dcache.overall_avg_mshr_miss_latency::.switch_cpus.data 62392.711506                       # average overall mshr miss latency
system.cpu.dcache.overall_avg_mshr_miss_latency::total 62392.711506                       # average overall mshr miss latency
system.cpu.dcache.replacements                 450470                       # number of replacements
system.cpu.dcache.ReadReq_hits::.cpu.data            4                       # number of ReadReq hits
system.cpu.dcache.ReadReq_hits::.switch_cpus.data     27869272                       # number of ReadReq hits
system.cpu.dcache.ReadReq_hits::total        27869276                       # number of ReadReq hits
system.cpu.dcache.ReadReq_misses::.cpu.data            4                       # number of ReadReq misses
system.cpu.dcache.ReadReq_misses::.switch_cpus.data       537404                       # number of ReadReq misses
system.cpu.dcache.ReadReq_misses::total        537408                       # number of ReadReq misses
system.cpu.dcache.ReadReq_miss_latency::.switch_cpus.data  30710898000                       # number of ReadReq miss cycles
system.cpu.dcache.ReadReq_miss_latency::total  30710898000                       # number of ReadReq miss cycles
system.cpu.dcache.ReadReq_accesses::.cpu.data            8                       # number of ReadReq accesses(hits+misses)
system.cpu.dcache.ReadReq_accesses::.switch_cpus.data     28406676                       # number of ReadReq accesses(hits+misses)
system.cpu.dcache.ReadReq_accesses::total     28406684                       # number of ReadReq accesses(hits+misses)
system.cpu.dcache.ReadReq_miss_rate::.cpu.data     0.500000                       # miss rate for ReadReq accesses
system.cpu.dcache.ReadReq_miss_rate::.switch_cpus.data     0.018918                       # miss rate for ReadReq accesses
system.cpu.dcache.ReadReq_miss_rate::total     0.018918                       # miss rate for ReadReq accesses
system.cpu.dcache.ReadReq_avg_miss_latency::.switch_cpus.data 57146.761096                       # average ReadReq miss latency
system.cpu.dcache.ReadReq_avg_miss_latency::total 57146.335745                       # average ReadReq miss latency
system.cpu.dcache.ReadReq_mshr_hits::.switch_cpus.data       219372                       # number of ReadReq MSHR hits
system.cpu.dcache.ReadReq_mshr_hits::total       219372                       # number of ReadReq MSHR hits
system.cpu.dcache.ReadReq_mshr_misses::.switch_cpus.data       318032                       # number of ReadReq MSHR misses
system.cpu.dcache.ReadReq_mshr_misses::total       318032                       # number of ReadReq MSHR misses
system.cpu.dcache.ReadReq_mshr_miss_latency::.switch_cpus.data  19290668500                       # number of ReadReq MSHR miss cycles
system.cpu.dcache.ReadReq_mshr_miss_latency::total  19290668500                       # number of ReadReq MSHR miss cycles
system.cpu.dcache.ReadReq_mshr_miss_rate::.switch_cpus.data     0.011196                       # mshr miss rate for ReadReq accesses
system.cpu.dcache.ReadReq_mshr_miss_rate::total     0.011196                       # mshr miss rate for ReadReq accesses
system.cpu.dcache.ReadReq_avg_mshr_miss_latency::.switch_cpus.data 60656.375774                       # average ReadReq mshr miss latency
system.cpu.dcache.ReadReq_avg_mshr_miss_latency::total 60656.375774                       # average ReadReq mshr miss latency
system.cpu.dcache.WriteReq_hits::.switch_cpus.data      8854609                       # number of WriteReq hits
system.cpu.dcache.WriteReq_hits::total        8854609                       # number of WriteReq hits
system.cpu.dcache.WriteReq_misses::.switch_cpus.data       128108                       # number of WriteReq misses
system.cpu.dcache.WriteReq_misses::total       128108                       # number of WriteReq misses
system.cpu.dcache.WriteReq_miss_latency::.switch_cpus.data   8569249318                       # number of WriteReq miss cycles
system.cpu.dcache.WriteReq_miss_latency::total   8569249318                       # number of WriteReq miss cycles
system.cpu.dcache.WriteReq_accesses::.switch_cpus.data      8982717                       # number of WriteReq accesses(hits+misses)
system.cpu.dcache.WriteReq_accesses::total      8982717                       # number of WriteReq accesses(hits+misses)
system.cpu.dcache.WriteReq_miss_rate::.switch_cpus.data     0.014262                       # miss rate for WriteReq accesses
system.cpu.dcache.WriteReq_miss_rate::total     0.014262                       # miss rate for WriteReq accesses
system.cpu.dcache.WriteReq_avg_miss_latency::.switch_cpus.data 66890.821167                       # average WriteReq miss latency
system.cpu.dcache.WriteReq_avg_miss_latency::total 66890.821167                       # average WriteReq miss latency
system.cpu.dcache.WriteReq_mshr_hits::.switch_cpus.data           93                       # number of WriteReq MSHR hits
system.cpu.dcache.WriteReq_mshr_hits::total           93                       # number of WriteReq MSHR hits
system.cpu.dcache.WriteReq_mshr_misses::.switch_cpus.data       128015                       # number of WriteReq MSHR misses
system.cpu.dcache.WriteReq_mshr_misses::total       128015                       # number of WriteReq MSHR misses
system.cpu.dcache.WriteReq_mshr_miss_latency::.switch_cpus.data   8440153818                       # number of WriteReq MSHR miss cycles
system.cpu.dcache.WriteReq_mshr_miss_latency::total   8440153818                       # number of WriteReq MSHR miss cycles
system.cpu.dcache.WriteReq_mshr_miss_rate::.switch_cpus.data     0.014251                       # mshr miss rate for WriteReq accesses
system.cpu.dcache.WriteReq_mshr_miss_rate::total     0.014251                       # mshr miss rate for WriteReq accesses
system.cpu.dcache.WriteReq_avg_mshr_miss_latency::.switch_cpus.data 65930.975417                       # average WriteReq mshr miss latency
system.cpu.dcache.WriteReq_avg_mshr_miss_latency::total 65930.975417                       # average WriteReq mshr miss latency
system.cpu.dcache.SoftPFReq_hits::.switch_cpus.data        55379                       # number of SoftPFReq hits
system.cpu.dcache.SoftPFReq_hits::total         55379                       # number of SoftPFReq hits
system.cpu.dcache.SoftPFReq_misses::.switch_cpus.data        18165                       # number of SoftPFReq misses
system.cpu.dcache.SoftPFReq_misses::total        18165                       # number of SoftPFReq misses
system.cpu.dcache.SoftPFReq_accesses::.switch_cpus.data        73544                       # number of SoftPFReq accesses(hits+misses)
system.cpu.dcache.SoftPFReq_accesses::total        73544                       # number of SoftPFReq accesses(hits+misses)
system.cpu.dcache.SoftPFReq_miss_rate::.switch_cpus.data     0.246995                       # miss rate for SoftPFReq accesses
system.cpu.dcache.SoftPFReq_miss_rate::total     0.246995                       # miss rate for SoftPFReq accesses
system.cpu.dcache.SoftPFReq_mshr_misses::.switch_cpus.data         5443                       # number of SoftPFReq MSHR misses
system.cpu.dcache.SoftPFReq_mshr_misses::total         5443                       # number of SoftPFReq MSHR misses
system.cpu.dcache.SoftPFReq_mshr_miss_latency::.switch_cpus.data    438863000                       # number of SoftPFReq MSHR miss cycles
system.cpu.dcache.SoftPFReq_mshr_miss_latency::total    438863000                       # number of SoftPFReq MSHR miss cycles
system.cpu.dcache.SoftPFReq_mshr_miss_rate::.switch_cpus.data     0.074010                       # mshr miss rate for SoftPFReq accesses
system.cpu.dcache.SoftPFReq_mshr_miss_rate::total     0.074010                       # mshr miss rate for SoftPFReq accesses
system.cpu.dcache.SoftPFReq_avg_mshr_miss_latency::.switch_cpus.data 80628.881132                       # average SoftPFReq mshr miss latency
system.cpu.dcache.SoftPFReq_avg_mshr_miss_latency::total 80628.881132                       # average SoftPFReq mshr miss latency
system.cpu.dcache.tags.pwrStateResidencyTicks::UNDEFINED 371685694562500                       # Cumulative time (in ticks) in various power states
system.cpu.dcache.tags.tagsinuse             0.067582                       # Cycle average of tags in use
system.cpu.dcache.tags.total_refs            37230758                       # Total number of references to valid blocks.
system.cpu.dcache.tags.sampled_refs            451494                       # Sample count of references to valid blocks.
system.cpu.dcache.tags.avg_refs             82.461246                       # Average number of references to valid blocks.
system.cpu.dcache.tags.warmup_cycle      371661094883500                       # Cycle when the warmup percentage was hit.
system.cpu.dcache.tags.occ_blocks::.cpu.data     0.000004                       # Average occupied blocks per requestor
system.cpu.dcache.tags.occ_blocks::.switch_cpus.data     0.067578                       # Average occupied blocks per requestor
system.cpu.dcache.tags.occ_percent::.cpu.data     0.000000                       # Average percentage of cache occupancy
system.cpu.dcache.tags.occ_percent::.switch_cpus.data     0.000066                       # Average percentage of cache occupancy
system.cpu.dcache.tags.occ_percent::total     0.000066                       # Average percentage of cache occupancy
system.cpu.dcache.tags.occ_task_id_blocks::1024         1024                       # Occupied blocks per task id
system.cpu.dcache.tags.age_task_id_blocks_1024::0          168                       # Occupied blocks per task id
system.cpu.dcache.tags.age_task_id_blocks_1024::1          803                       # Occupied blocks per task id
system.cpu.dcache.tags.age_task_id_blocks_1024::2           48                       # Occupied blocks per task id
system.cpu.dcache.tags.age_task_id_blocks_1024::3            5                       # Occupied blocks per task id
system.cpu.dcache.tags.occ_task_id_percent::1024            1                       # Percentage of cache occupancy per task id
system.cpu.dcache.tags.tag_accesses          75377384                       # Number of tag accesses
system.cpu.dcache.tags.data_accesses         75377384                       # Number of data accesses

---------- End Simulation Statistics   ----------
