
---------- Begin Simulation Statistics ----------
final_tick                               371668655212500                       # Number of ticks from beginning of simulation (restored from checkpoints and never reset)
host_inst_rate                                  39293                       # Simulator instruction rate (inst/s)
host_mem_usage                                 899324                       # Number of bytes of host memory used
host_op_rate                                    87916                       # Simulator op (including micro ops) rate (op/s)
host_seconds                                   254.50                       # Real time elapsed on the host
host_tick_rate                               29706430                       # Simulator tick rate (ticks/s)
sim_freq                                 1000000000000                       # Frequency of simulated ticks
sim_insts                                    10000006                       # Number of instructions simulated
sim_ops                                      22374673                       # Number of ops (including micro ops) simulated
sim_seconds                                  0.007560                       # Number of seconds simulated
sim_ticks                                  7560330000                       # Number of ticks simulated
system.cpu.committedInsts                           5                       # Number of instructions committed
system.cpu.committedOps                            17                       # Number of ops (including micro ops) committed
system.cpu.dtb.rdAccesses                           8                       # TLB accesses on read requests
system.cpu.dtb.rdMisses                             0                       # TLB misses on read requests
system.cpu.dtb.wrAccesses                           0                       # TLB accesses on write requests
system.cpu.dtb.wrMisses                             0                       # TLB misses on write requests
system.cpu.idle_fraction                            0                       # Percentage of idle cycles
system.cpu.itb.rdAccesses                           0                       # TLB accesses on read requests
system.cpu.itb.rdMisses                             0                       # TLB misses on read requests
system.cpu.itb.wrAccesses                          10                       # TLB accesses on write requests
system.cpu.itb.wrMisses                             0                       # TLB misses on write requests
system.cpu.not_idle_fraction                        1                       # Percentage of non-idle cycles
system.cpu.numCycles                               22                       # number of cpu cycles simulated
system.cpu.numWorkItemsCompleted                    0                       # number of work items this cpu completed
system.cpu.numWorkItemsStarted                      0                       # number of work items this cpu started
system.cpu.num_busy_cycles                         22                       # Number of busy cycles
system.cpu.num_conditional_control_insts            0                       # number of instructions that are conditional controls
system.cpu.num_fp_alu_accesses                     16                       # Number of float alu accesses
system.cpu.num_fp_insts                            16                       # number of float instructions
system.cpu.num_fp_register_reads                   24                       # number of times the floating registers were read
system.cpu.num_fp_register_writes                  16                       # number of times the floating registers were written
system.cpu.num_func_calls                           0                       # number of times a function call or return occured
system.cpu.num_idle_cycles                          0                       # Number of idle cycles
system.cpu.num_int_alu_accesses                     9                       # Number of integer alu accesses
system.cpu.num_int_insts                            9                       # number of integer instructions
system.cpu.num_int_register_reads                  25                       # number of times the integer registers were read
system.cpu.num_int_register_writes                  1                       # number of times the integer registers were written
system.cpu.num_load_insts                           8                       # Number of load instructions
system.cpu.num_mem_refs                             8                       # number of memory refs
system.cpu.num_store_insts                          0                       # Number of store instructions
system.cpu.num_vec_alu_accesses                     0                       # Number of vector alu accesses
system.cpu.num_vec_insts                            0                       # number of vector instructions
system.cpu.num_vec_register_reads                   0                       # number of times the vector registers were read
system.cpu.num_vec_register_writes                  0                       # number of times the vector registers were written
system.cpu.op_class::No_OpClass                     0      0.00%      0.00% # Class of executed instruction
system.cpu.op_class::IntAlu                         1      5.88%      5.88% # Class of executed instruction
system.cpu.op_class::IntMult                        0      0.00%      5.88% # Class of executed instruction
system.cpu.op_class::IntDiv                         0      0.00%      5.88% # Class of executed instruction
system.cpu.op_class::FloatAdd                       0      0.00%      5.88% # Class of executed instruction
system.cpu.op_class::FloatCmp                       0      0.00%      5.88% # Class of executed instruction
system.cpu.op_class::FloatCvt                       0      0.00%      5.88% # Class of executed instruction
system.cpu.op_class::FloatMult                      0      0.00%      5.88% # Class of executed instruction
system.cpu.op_class::FloatMultAcc                   0      0.00%      5.88% # Class of executed instruction
system.cpu.op_class::FloatDiv                       0      0.00%      5.88% # Class of executed instruction
system.cpu.op_class::FloatMisc                      0      0.00%      5.88% # Class of executed instruction
system.cpu.op_class::FloatSqrt                      0      0.00%      5.88% # Class of executed instruction
system.cpu.op_class::SimdAdd                        0      0.00%      5.88% # Class of executed instruction
system.cpu.op_class::SimdAddAcc                     0      0.00%      5.88% # Class of executed instruction
system.cpu.op_class::SimdAlu                        0      0.00%      5.88% # Class of executed instruction
system.cpu.op_class::SimdCmp                        0      0.00%      5.88% # Class of executed instruction
system.cpu.op_class::SimdCvt                        0      0.00%      5.88% # Class of executed instruction
system.cpu.op_class::SimdMisc                       0      0.00%      5.88% # Class of executed instruction
system.cpu.op_class::SimdMult                       0      0.00%      5.88% # Class of executed instruction
system.cpu.op_class::SimdMultAcc                    0      0.00%      5.88% # Class of executed instruction
system.cpu.op_class::SimdShift                      0      0.00%      5.88% # Class of executed instruction
system.cpu.op_class::SimdShiftAcc                   0      0.00%      5.88% # Class of executed instruction
system.cpu.op_class::SimdDiv                        0      0.00%      5.88% # Class of executed instruction
system.cpu.op_class::SimdSqrt                       0      0.00%      5.88% # Class of executed instruction
system.cpu.op_class::SimdFloatAdd                   4     23.53%     29.41% # Class of executed instruction
system.cpu.op_class::SimdFloatAlu                   0      0.00%     29.41% # Class of executed instruction
system.cpu.op_class::SimdFloatCmp                   0      0.00%     29.41% # Class of executed instruction
system.cpu.op_class::SimdFloatCvt                   0      0.00%     29.41% # Class of executed instruction
system.cpu.op_class::SimdFloatDiv                   0      0.00%     29.41% # Class of executed instruction
system.cpu.op_class::SimdFloatMisc                  0      0.00%     29.41% # Class of executed instruction
system.cpu.op_class::SimdFloatMult                  4     23.53%     52.94% # Class of executed instruction
system.cpu.op_class::SimdFloatMultAcc               0      0.00%     52.94% # Class of executed instruction
system.cpu.op_class::SimdFloatSqrt                  0      0.00%     52.94% # Class of executed instruction
system.cpu.op_class::SimdReduceAdd                  0      0.00%     52.94% # Class of executed instruction
system.cpu.op_class::SimdReduceAlu                  0      0.00%     52.94% # Class of executed instruction
system.cpu.op_class::SimdReduceCmp                  0      0.00%     52.94% # Class of executed instruction
system.cpu.op_class::SimdFloatReduceAdd             0      0.00%     52.94% # Class of executed instruction
system.cpu.op_class::SimdFloatReduceCmp             0      0.00%     52.94% # Class of executed instruction
system.cpu.op_class::SimdAes                        0      0.00%     52.94% # Class of executed instruction
system.cpu.op_class::SimdAesMix                     0      0.00%     52.94% # Class of executed instruction
system.cpu.op_class::SimdSha1Hash                   0      0.00%     52.94% # Class of executed instruction
system.cpu.op_class::SimdSha1Hash2                  0      0.00%     52.94% # Class of executed instruction
system.cpu.op_class::SimdSha256Hash                 0      0.00%     52.94% # Class of executed instruction
system.cpu.op_class::SimdSha256Hash2                0      0.00%     52.94% # Class of executed instruction
system.cpu.op_class::SimdShaSigma2                  0      0.00%     52.94% # Class of executed instruction
system.cpu.op_class::SimdShaSigma3                  0      0.00%     52.94% # Class of executed instruction
system.cpu.op_class::SimdPredAlu                    0      0.00%     52.94% # Class of executed instruction
system.cpu.op_class::MemRead                        0      0.00%     52.94% # Class of executed instruction
system.cpu.op_class::MemWrite                       0      0.00%     52.94% # Class of executed instruction
system.cpu.op_class::FloatMemRead                   8     47.06%    100.00% # Class of executed instruction
system.cpu.op_class::FloatMemWrite                  0      0.00%    100.00% # Class of executed instruction
system.cpu.op_class::IprAccess                      0      0.00%    100.00% # Class of executed instruction
system.cpu.op_class::InstPrefetch                   0      0.00%    100.00% # Class of executed instruction
system.cpu.op_class::total                         17                       # Class of executed instruction
system.cpu.workload.numSyscalls                     5                       # Number of system calls
system.membus.snoop_filter.hit_multi_requests            0                       # Number of requests hitting in the snoop filter with multiple (>1) holders of the requested data.
system.membus.snoop_filter.hit_multi_snoops            0                       # Number of snoops hitting in the snoop filter with multiple (>1) holders of the requested data.
system.membus.snoop_filter.hit_single_requests        77959                       # Number of requests hitting in the snoop filter with a single holder of the requested data.
system.membus.snoop_filter.hit_single_snoops            0                       # Number of snoops hitting in the snoop filter with a single holder of the requested data.
system.membus.snoop_filter.tot_requests        164659                       # Total number of requests made to the snoop filter.
system.membus.snoop_filter.tot_snoops               0                       # Total number of snoops made to the snoop filter.
system.switch_cpus.branchPred.BTBCorrect            0                       # Number of correct BTB predictions (this stat may not work properly.
system.switch_cpus.branchPred.BTBHitPct      0.000000                       # BTB Hit Percentage
system.switch_cpus.branchPred.BTBHits               0                       # Number of BTB hits
system.switch_cpus.branchPred.BTBLookups       131607                       # Number of BTB lookups
system.switch_cpus.branchPred.RASInCorrect           29                       # Number of incorrect RAS predictions.
system.switch_cpus.branchPred.condIncorrect         6556                       # Number of conditional branches incorrect
system.switch_cpus.branchPred.condPredicted       147275                       # Number of conditional branches predicted
system.switch_cpus.branchPred.indirectHits        69991                       # Number of indirect target hits.
system.switch_cpus.branchPred.indirectLookups       131607                       # Number of indirect predictor lookups.
system.switch_cpus.branchPred.indirectMisses        61616                       # Number of indirect misses.
system.switch_cpus.branchPred.lookups          178484                       # Number of BP lookups
system.switch_cpus.branchPred.usedRAS           17893                       # Number of times the RAS was used to get a target.
system.switch_cpus.branchPredindirectMispredicted         4172                       # Number of mispredicted indirect branches.
system.switch_cpus.cc_regfile_reads            717200                       # number of cc regfile reads
system.switch_cpus.cc_regfile_writes           610632                       # number of cc regfile writes
system.switch_cpus.commit.amos                      0                       # Number of atomic instructions committed
system.switch_cpus.commit.branchMispredicts         6725                       # The number of times a branch was mispredicted
system.switch_cpus.commit.branches             106288                       # Number of branches committed
system.switch_cpus.commit.bw_lim_events       1518522                       # number cycles where commit BW limit reached
system.switch_cpus.commit.commitNonSpecStalls          405                       # The number of times commit has been forced to stall to communicate backwards
system.switch_cpus.commit.commitSquashedInsts       785222                       # The number of squashed insts skipped by commit
system.switch_cpus.commit.committedInsts     10000001                       # Number of instructions committed
system.switch_cpus.commit.committedOps       22374656                       # Number of ops (including micro ops) committed
system.switch_cpus.commit.committed_per_cycle::samples     14890308                       # Number of insts commited each cycle
system.switch_cpus.commit.committed_per_cycle::mean     1.502632                       # Number of insts commited each cycle
system.switch_cpus.commit.committed_per_cycle::stdev     2.685461                       # Number of insts commited each cycle
system.switch_cpus.commit.committed_per_cycle::underflows            0      0.00%      0.00% # Number of insts commited each cycle
system.switch_cpus.commit.committed_per_cycle::0     10140712     68.10%     68.10% # Number of insts commited each cycle
system.switch_cpus.commit.committed_per_cycle::1       744761      5.00%     73.10% # Number of insts commited each cycle
system.switch_cpus.commit.committed_per_cycle::2       842110      5.66%     78.76% # Number of insts commited each cycle
system.switch_cpus.commit.committed_per_cycle::3       292744      1.97%     80.73% # Number of insts commited each cycle
system.switch_cpus.commit.committed_per_cycle::4       557762      3.75%     84.47% # Number of insts commited each cycle
system.switch_cpus.commit.committed_per_cycle::5       268130      1.80%     86.27% # Number of insts commited each cycle
system.switch_cpus.commit.committed_per_cycle::6       331400      2.23%     88.50% # Number of insts commited each cycle
system.switch_cpus.commit.committed_per_cycle::7       194167      1.30%     89.80% # Number of insts commited each cycle
system.switch_cpus.commit.committed_per_cycle::8      1518522     10.20%    100.00% # Number of insts commited each cycle
system.switch_cpus.commit.committed_per_cycle::overflows            0      0.00%    100.00% # Number of insts commited each cycle
system.switch_cpus.commit.committed_per_cycle::min_value            0                       # Number of insts commited each cycle
system.switch_cpus.commit.committed_per_cycle::max_value            8                       # Number of insts commited each cycle
system.switch_cpus.commit.committed_per_cycle::total     14890308                       # Number of insts commited each cycle
system.switch_cpus.commit.fp_insts           20559192                       # Number of committed floating point instructions.
system.switch_cpus.commit.function_calls         8242                       # Number of function calls committed.
system.switch_cpus.commit.int_insts          10716167                       # Number of committed integer instructions.
system.switch_cpus.commit.loads               7506752                       # Number of loads committed
system.switch_cpus.commit.membars                   0                       # Number of memory barriers committed
system.switch_cpus.commit.op_class_0::No_OpClass         3248      0.01%      0.01% # Class of committed instruction
system.switch_cpus.commit.op_class_0::IntAlu      3440241     15.38%     15.39% # Class of committed instruction
system.switch_cpus.commit.op_class_0::IntMult          647      0.00%     15.39% # Class of committed instruction
system.switch_cpus.commit.op_class_0::IntDiv          133      0.00%     15.39% # Class of committed instruction
system.switch_cpus.commit.op_class_0::FloatAdd          604      0.00%     15.40% # Class of committed instruction
system.switch_cpus.commit.op_class_0::FloatCmp            0      0.00%     15.40% # Class of committed instruction
system.switch_cpus.commit.op_class_0::FloatCvt            0      0.00%     15.40% # Class of committed instruction
system.switch_cpus.commit.op_class_0::FloatMult            0      0.00%     15.40% # Class of committed instruction
system.switch_cpus.commit.op_class_0::FloatMultAcc            0      0.00%     15.40% # Class of committed instruction
system.switch_cpus.commit.op_class_0::FloatDiv            0      0.00%     15.40% # Class of committed instruction
system.switch_cpus.commit.op_class_0::FloatMisc            0      0.00%     15.40% # Class of committed instruction
system.switch_cpus.commit.op_class_0::FloatSqrt            0      0.00%     15.40% # Class of committed instruction
system.switch_cpus.commit.op_class_0::SimdAdd          746      0.00%     15.40% # Class of committed instruction
system.switch_cpus.commit.op_class_0::SimdAddAcc            0      0.00%     15.40% # Class of committed instruction
system.switch_cpus.commit.op_class_0::SimdAlu        55789      0.25%     15.65% # Class of committed instruction
system.switch_cpus.commit.op_class_0::SimdCmp            0      0.00%     15.65% # Class of committed instruction
system.switch_cpus.commit.op_class_0::SimdCvt         4810      0.02%     15.67% # Class of committed instruction
system.switch_cpus.commit.op_class_0::SimdMisc         4991      0.02%     15.69% # Class of committed instruction
system.switch_cpus.commit.op_class_0::SimdMult            0      0.00%     15.69% # Class of committed instruction
system.switch_cpus.commit.op_class_0::SimdMultAcc            0      0.00%     15.69% # Class of committed instruction
system.switch_cpus.commit.op_class_0::SimdShift           32      0.00%     15.69% # Class of committed instruction
system.switch_cpus.commit.op_class_0::SimdShiftAcc            0      0.00%     15.69% # Class of committed instruction
system.switch_cpus.commit.op_class_0::SimdDiv            0      0.00%     15.69% # Class of committed instruction
system.switch_cpus.commit.op_class_0::SimdSqrt            0      0.00%     15.69% # Class of committed instruction
system.switch_cpus.commit.op_class_0::SimdFloatAdd      5262290     23.52%     39.21% # Class of committed instruction
system.switch_cpus.commit.op_class_0::SimdFloatAlu            0      0.00%     39.21% # Class of committed instruction
system.switch_cpus.commit.op_class_0::SimdFloatCmp            0      0.00%     39.21% # Class of committed instruction
system.switch_cpus.commit.op_class_0::SimdFloatCvt            0      0.00%     39.21% # Class of committed instruction
system.switch_cpus.commit.op_class_0::SimdFloatDiv        10955      0.05%     39.26% # Class of committed instruction
system.switch_cpus.commit.op_class_0::SimdFloatMisc            0      0.00%     39.26% # Class of committed instruction
system.switch_cpus.commit.op_class_0::SimdFloatMult      3855430     17.23%     56.49% # Class of committed instruction
system.switch_cpus.commit.op_class_0::SimdFloatMultAcc            0      0.00%     56.49% # Class of committed instruction
system.switch_cpus.commit.op_class_0::SimdFloatSqrt            0      0.00%     56.49% # Class of committed instruction
system.switch_cpus.commit.op_class_0::SimdReduceAdd            0      0.00%     56.49% # Class of committed instruction
system.switch_cpus.commit.op_class_0::SimdReduceAlu            0      0.00%     56.49% # Class of committed instruction
system.switch_cpus.commit.op_class_0::SimdReduceCmp            0      0.00%     56.49% # Class of committed instruction
system.switch_cpus.commit.op_class_0::SimdFloatReduceAdd            0      0.00%     56.49% # Class of committed instruction
system.switch_cpus.commit.op_class_0::SimdFloatReduceCmp            0      0.00%     56.49% # Class of committed instruction
system.switch_cpus.commit.op_class_0::SimdAes            0      0.00%     56.49% # Class of committed instruction
system.switch_cpus.commit.op_class_0::SimdAesMix            0      0.00%     56.49% # Class of committed instruction
system.switch_cpus.commit.op_class_0::SimdSha1Hash            0      0.00%     56.49% # Class of committed instruction
system.switch_cpus.commit.op_class_0::SimdSha1Hash2            0      0.00%     56.49% # Class of committed instruction
system.switch_cpus.commit.op_class_0::SimdSha256Hash            0      0.00%     56.49% # Class of committed instruction
system.switch_cpus.commit.op_class_0::SimdSha256Hash2            0      0.00%     56.49% # Class of committed instruction
system.switch_cpus.commit.op_class_0::SimdShaSigma2            0      0.00%     56.49% # Class of committed instruction
system.switch_cpus.commit.op_class_0::SimdShaSigma3            0      0.00%     56.49% # Class of committed instruction
system.switch_cpus.commit.op_class_0::SimdPredAlu            0      0.00%     56.49% # Class of committed instruction
system.switch_cpus.commit.op_class_0::MemRead       756767      3.38%     59.87% # Class of committed instruction
system.switch_cpus.commit.op_class_0::MemWrite        77584      0.35%     60.22% # Class of committed instruction
system.switch_cpus.commit.op_class_0::FloatMemRead      6749985     30.17%     90.39% # Class of committed instruction
system.switch_cpus.commit.op_class_0::FloatMemWrite      2150404      9.61%    100.00% # Class of committed instruction
system.switch_cpus.commit.op_class_0::IprAccess            0      0.00%    100.00% # Class of committed instruction
system.switch_cpus.commit.op_class_0::InstPrefetch            0      0.00%    100.00% # Class of committed instruction
system.switch_cpus.commit.op_class_0::total     22374656                       # Class of committed instruction
system.switch_cpus.commit.refs                9734740                       # Number of memory references committed
system.switch_cpus.commit.swp_count                 0                       # Number of s/w prefetches committed
system.switch_cpus.commit.vec_insts                 0                       # Number of committed Vector instructions.
system.switch_cpus.committedInsts            10000001                       # Number of Instructions Simulated
system.switch_cpus.committedOps              22374656                       # Number of Ops (including micro ops) Simulated
system.switch_cpus.cpi                       1.512064                       # CPI: Cycles Per Instruction
system.switch_cpus.cpi_total                 1.512064                       # CPI: Total CPI of All Threads
system.switch_cpus.decode.BlockedCycles      11031159                       # Number of cycles decode is blocked
system.switch_cpus.decode.DecodedInsts       23436218                       # Number of instructions handled by decode
system.switch_cpus.decode.IdleCycles           807826                       # Number of cycles decode is idle
system.switch_cpus.decode.RunCycles           2490863                       # Number of cycles decode is running
system.switch_cpus.decode.SquashCycles          13321                       # Number of cycles decode is squashing
system.switch_cpus.decode.UnblockCycles        653244                       # Number of cycles decode is unblocking
system.switch_cpus.dtb.rdAccesses             7694459                       # TLB accesses on read requests
system.switch_cpus.dtb.rdMisses                  1916                       # TLB misses on read requests
system.switch_cpus.dtb.wrAccesses             2375894                       # TLB accesses on write requests
system.switch_cpus.dtb.wrMisses                   716                       # TLB misses on write requests
system.switch_cpus.fetch.Branches              178484                       # Number of branches that fetch encountered
system.switch_cpus.fetch.CacheLines           1122267                       # Number of cache lines fetched
system.switch_cpus.fetch.Cycles              13784058                       # Number of cycles fetch has run and was not squashing or blocked
system.switch_cpus.fetch.IcacheSquashes          2112                       # Number of outstanding Icache misses that were squashed
system.switch_cpus.fetch.IcacheWaitRetryStallCycles           56                       # Number of stall cycles due to full MSHR
system.switch_cpus.fetch.Insts               10744558                       # Number of instructions fetch has processed
system.switch_cpus.fetch.MiscStallCycles          419                       # Number of cycles fetch has spent waiting on interrupts, or bad addresses, or out of MSHRs
system.switch_cpus.fetch.PendingTrapStallCycles         1152                       # Number of stall cycles due to pending traps
system.switch_cpus.fetch.SquashCycles           26642                       # Number of cycles fetch has spent squashing
system.switch_cpus.fetch.branchRate          0.011804                       # Number of branch fetches per cycle
system.switch_cpus.fetch.icacheStallCycles      1197744                       # Number of cycles fetch is stalled on an Icache miss
system.switch_cpus.fetch.predictedBranches        87884                       # Number of branches that fetch has predicted taken
system.switch_cpus.fetch.rate                0.710589                       # Number of inst fetches per cycle
system.switch_cpus.fetch.rateDist::samples     14996750                       # Number of instructions fetched each cycle (Total)
system.switch_cpus.fetch.rateDist::mean      1.581740                       # Number of instructions fetched each cycle (Total)
system.switch_cpus.fetch.rateDist::stdev     3.029190                       # Number of instructions fetched each cycle (Total)
system.switch_cpus.fetch.rateDist::underflows            0      0.00%      0.00% # Number of instructions fetched each cycle (Total)
system.switch_cpus.fetch.rateDist::0         11445887     76.32%     76.32% # Number of instructions fetched each cycle (Total)
system.switch_cpus.fetch.rateDist::1           109476      0.73%     77.05% # Number of instructions fetched each cycle (Total)
system.switch_cpus.fetch.rateDist::2           213050      1.42%     78.47% # Number of instructions fetched each cycle (Total)
system.switch_cpus.fetch.rateDist::3           175578      1.17%     79.64% # Number of instructions fetched each cycle (Total)
system.switch_cpus.fetch.rateDist::4           192063      1.28%     80.92% # Number of instructions fetched each cycle (Total)
system.switch_cpus.fetch.rateDist::5           150642      1.00%     81.93% # Number of instructions fetched each cycle (Total)
system.switch_cpus.fetch.rateDist::6           227307      1.52%     83.44% # Number of instructions fetched each cycle (Total)
system.switch_cpus.fetch.rateDist::7            88624      0.59%     84.04% # Number of instructions fetched each cycle (Total)
system.switch_cpus.fetch.rateDist::8          2394123     15.96%    100.00% # Number of instructions fetched each cycle (Total)
system.switch_cpus.fetch.rateDist::overflows            0      0.00%    100.00% # Number of instructions fetched each cycle (Total)
system.switch_cpus.fetch.rateDist::min_value            0                       # Number of instructions fetched each cycle (Total)
system.switch_cpus.fetch.rateDist::max_value            8                       # Number of instructions fetched each cycle (Total)
system.switch_cpus.fetch.rateDist::total     14996750                       # Number of instructions fetched each cycle (Total)
system.switch_cpus.fp_regfile_reads          34696149                       # number of floating regfile reads
system.switch_cpus.fp_regfile_writes         18489358                       # number of floating regfile writes
system.switch_cpus.idleCycles                  123888                       # Total number of cycles that the CPU has spent unscheduled due to idling
system.switch_cpus.iew.branchMispredicts         9016                       # Number of branch mispredicts detected at execute
system.switch_cpus.iew.exec_branches           138067                       # Number of branches executed
system.switch_cpus.iew.exec_nop                     0                       # number of nop insts executed
system.switch_cpus.iew.exec_rate             1.539592                       # Inst execution rate
system.switch_cpus.iew.exec_refs             10237103                       # number of memory reference insts executed
system.switch_cpus.iew.exec_stores            2375894                       # Number of stores executed
system.switch_cpus.iew.exec_swp                     0                       # number of swp insts executed
system.switch_cpus.iew.iewBlockCycles          329067                       # Number of cycles IEW is blocking
system.switch_cpus.iew.iewDispLoadInsts       7709601                       # Number of dispatched load instructions
system.switch_cpus.iew.iewDispNonSpecInsts           12                       # Number of dispatched non-speculative instructions
system.switch_cpus.iew.iewDispSquashedInsts          346                       # Number of squashed instructions skipped by dispatch
system.switch_cpus.iew.iewDispStoreInsts      2445442                       # Number of dispatched store instructions
system.switch_cpus.iew.iewDispatchedInsts     23278038                       # Number of instructions dispatched to IQ
system.switch_cpus.iew.iewExecLoadInsts       7861209                       # Number of load instructions executed
system.switch_cpus.iew.iewExecSquashedInsts        18836                       # Number of squashed instructions skipped in execute
system.switch_cpus.iew.iewExecutedInsts      23279616                       # Number of executed instructions
system.switch_cpus.iew.iewIQFullEvents           3192                       # Number of times the IQ has become full, causing a stall
system.switch_cpus.iew.iewIdleCycles                0                       # Number of cycles IEW is idle
system.switch_cpus.iew.iewLSQFullEvents       3836176                       # Number of times the LSQ has become full, causing a stall
system.switch_cpus.iew.iewSquashCycles          13321                       # Number of cycles IEW is squashing
system.switch_cpus.iew.iewUnblockCycles       3843818                       # Number of cycles IEW is unblocking
system.switch_cpus.iew.lsq.thread0.blockedLoads            0                       # Number of blocked loads due to partial load-store forwarding
system.switch_cpus.iew.lsq.thread0.cacheBlocked        33167                       # Number of times an access to memory failed due to the cache being blocked
system.switch_cpus.iew.lsq.thread0.forwLoads       578249                       # Number of loads that had data forwarded from stores
system.switch_cpus.iew.lsq.thread0.ignoredResponses           96                       # Number of memory responses ignored because the instruction is squashed
system.switch_cpus.iew.lsq.thread0.invAddrLoads            0                       # Number of loads ignored due to an invalid address
system.switch_cpus.iew.lsq.thread0.invAddrSwpfs            0                       # Number of software prefetches ignored due to an invalid address
system.switch_cpus.iew.lsq.thread0.memOrderViolation          304                       # Number of memory ordering violations
system.switch_cpus.iew.lsq.thread0.rescheduledLoads            0                       # Number of loads that were rescheduled
system.switch_cpus.iew.lsq.thread0.squashedLoads       202824                       # Number of loads squashed
system.switch_cpus.iew.lsq.thread0.squashedStores       217450                       # Number of stores squashed
system.switch_cpus.iew.memOrderViolationEvents          304                       # Number of memory order violations
system.switch_cpus.iew.predictedNotTakenIncorrect         7261                       # Number of branches that were predicted not taken incorrectly
system.switch_cpus.iew.predictedTakenIncorrect         1755                       # Number of branches that were predicted taken incorrectly
system.switch_cpus.iew.wb_consumers          28822208                       # num instructions consuming a value
system.switch_cpus.iew.wb_count              23041278                       # cumulative count of insts written-back
system.switch_cpus.iew.wb_fanout             0.606993                       # average fanout of values written-back
system.switch_cpus.iew.wb_producers          17494884                       # num instructions producing a value
system.switch_cpus.iew.wb_rate               1.523830                       # insts written-back per cycle
system.switch_cpus.iew.wb_sent               23097890                       # cumulative count of insts sent to commit
system.switch_cpus.int_regfile_reads         22005252                       # number of integer regfile reads
system.switch_cpus.int_regfile_writes         2038257                       # number of integer regfile writes
system.switch_cpus.ipc                       0.661348                       # IPC: Instructions Per Cycle
system.switch_cpus.ipc_total                 0.661348                       # IPC: Total IPC of All Threads
system.switch_cpus.iq.FU_type_0::No_OpClass        55634      0.24%      0.24% # Type of FU issued
system.switch_cpus.iq.FU_type_0::IntAlu       3798384     16.30%     16.54% # Type of FU issued
system.switch_cpus.iq.FU_type_0::IntMult          652      0.00%     16.54% # Type of FU issued
system.switch_cpus.iq.FU_type_0::IntDiv           140      0.00%     16.55% # Type of FU issued
system.switch_cpus.iq.FU_type_0::FloatAdd         3695      0.02%     16.56% # Type of FU issued
system.switch_cpus.iq.FU_type_0::FloatCmp            0      0.00%     16.56% # Type of FU issued
system.switch_cpus.iq.FU_type_0::FloatCvt            0      0.00%     16.56% # Type of FU issued
system.switch_cpus.iq.FU_type_0::FloatMult            0      0.00%     16.56% # Type of FU issued
system.switch_cpus.iq.FU_type_0::FloatMultAcc            0      0.00%     16.56% # Type of FU issued
system.switch_cpus.iq.FU_type_0::FloatDiv            0      0.00%     16.56% # Type of FU issued
system.switch_cpus.iq.FU_type_0::FloatMisc            0      0.00%     16.56% # Type of FU issued
system.switch_cpus.iq.FU_type_0::FloatSqrt            0      0.00%     16.56% # Type of FU issued
system.switch_cpus.iq.FU_type_0::SimdAdd          781      0.00%     16.56% # Type of FU issued
system.switch_cpus.iq.FU_type_0::SimdAddAcc            0      0.00%     16.56% # Type of FU issued
system.switch_cpus.iq.FU_type_0::SimdAlu        56693      0.24%     16.81% # Type of FU issued
system.switch_cpus.iq.FU_type_0::SimdCmp            0      0.00%     16.81% # Type of FU issued
system.switch_cpus.iq.FU_type_0::SimdCvt         4965      0.02%     16.83% # Type of FU issued
system.switch_cpus.iq.FU_type_0::SimdMisc         5136      0.02%     16.85% # Type of FU issued
system.switch_cpus.iq.FU_type_0::SimdMult            0      0.00%     16.85% # Type of FU issued
system.switch_cpus.iq.FU_type_0::SimdMultAcc            0      0.00%     16.85% # Type of FU issued
system.switch_cpus.iq.FU_type_0::SimdShift           71      0.00%     16.85% # Type of FU issued
system.switch_cpus.iq.FU_type_0::SimdShiftAcc            0      0.00%     16.85% # Type of FU issued
system.switch_cpus.iq.FU_type_0::SimdDiv            0      0.00%     16.85% # Type of FU issued
system.switch_cpus.iq.FU_type_0::SimdSqrt            0      0.00%     16.85% # Type of FU issued
system.switch_cpus.iq.FU_type_0::SimdFloatAdd      5262535     22.59%     39.44% # Type of FU issued
system.switch_cpus.iq.FU_type_0::SimdFloatAlu            0      0.00%     39.44% # Type of FU issued
system.switch_cpus.iq.FU_type_0::SimdFloatCmp            0      0.00%     39.44% # Type of FU issued
system.switch_cpus.iq.FU_type_0::SimdFloatCvt            1      0.00%     39.44% # Type of FU issued
system.switch_cpus.iq.FU_type_0::SimdFloatDiv        10955      0.05%     39.49% # Type of FU issued
system.switch_cpus.iq.FU_type_0::SimdFloatMisc            0      0.00%     39.49% # Type of FU issued
system.switch_cpus.iq.FU_type_0::SimdFloatMult      3855551     16.55%     56.03% # Type of FU issued
system.switch_cpus.iq.FU_type_0::SimdFloatMultAcc            0      0.00%     56.03% # Type of FU issued
system.switch_cpus.iq.FU_type_0::SimdFloatSqrt            0      0.00%     56.03% # Type of FU issued
system.switch_cpus.iq.FU_type_0::SimdReduceAdd            0      0.00%     56.03% # Type of FU issued
system.switch_cpus.iq.FU_type_0::SimdReduceAlu            0      0.00%     56.03% # Type of FU issued
system.switch_cpus.iq.FU_type_0::SimdReduceCmp            0      0.00%     56.03% # Type of FU issued
system.switch_cpus.iq.FU_type_0::SimdFloatReduceAdd            0      0.00%     56.03% # Type of FU issued
system.switch_cpus.iq.FU_type_0::SimdFloatReduceCmp            0      0.00%     56.03% # Type of FU issued
system.switch_cpus.iq.FU_type_0::SimdAes            0      0.00%     56.03% # Type of FU issued
system.switch_cpus.iq.FU_type_0::SimdAesMix            0      0.00%     56.03% # Type of FU issued
system.switch_cpus.iq.FU_type_0::SimdSha1Hash            0      0.00%     56.03% # Type of FU issued
system.switch_cpus.iq.FU_type_0::SimdSha1Hash2            0      0.00%     56.03% # Type of FU issued
system.switch_cpus.iq.FU_type_0::SimdSha256Hash            0      0.00%     56.03% # Type of FU issued
system.switch_cpus.iq.FU_type_0::SimdSha256Hash2            0      0.00%     56.03% # Type of FU issued
system.switch_cpus.iq.FU_type_0::SimdShaSigma2            0      0.00%     56.03% # Type of FU issued
system.switch_cpus.iq.FU_type_0::SimdShaSigma3            0      0.00%     56.03% # Type of FU issued
system.switch_cpus.iq.FU_type_0::SimdPredAlu            0      0.00%     56.03% # Type of FU issued
system.switch_cpus.iq.FU_type_0::MemRead       904216      3.88%     59.92% # Type of FU issued
system.switch_cpus.iq.FU_type_0::MemWrite       131178      0.56%     60.48% # Type of FU issued
system.switch_cpus.iq.FU_type_0::FloatMemRead      6961841     29.88%     90.36% # Type of FU issued
system.switch_cpus.iq.FU_type_0::FloatMemWrite      2246025      9.64%    100.00% # Type of FU issued
system.switch_cpus.iq.FU_type_0::IprAccess            0      0.00%    100.00% # Type of FU issued
system.switch_cpus.iq.FU_type_0::InstPrefetch            0      0.00%    100.00% # Type of FU issued
system.switch_cpus.iq.FU_type_0::total       23298453                       # Type of FU issued
system.switch_cpus.iq.fp_alu_accesses        21775125                       # Number of floating point alu accesses
system.switch_cpus.iq.fp_inst_queue_reads     42647120                       # Number of floating instruction queue reads
system.switch_cpus.iq.fp_inst_queue_wakeup_accesses     20737264                       # Number of floating instruction queue wakeup accesses
system.switch_cpus.iq.fp_inst_queue_writes     21029641                       # Number of floating instruction queue writes
system.switch_cpus.iq.fu_busy_cnt             1018048                       # FU busy when requested
system.switch_cpus.iq.fu_busy_rate           0.043696                       # FU busy rate (busy events/executed inst)
system.switch_cpus.iq.fu_full::No_OpClass            0      0.00%      0.00% # attempts to use FU when none available
system.switch_cpus.iq.fu_full::IntAlu           13409      1.32%      1.32% # attempts to use FU when none available
system.switch_cpus.iq.fu_full::IntMult              0      0.00%      1.32% # attempts to use FU when none available
system.switch_cpus.iq.fu_full::IntDiv               0      0.00%      1.32% # attempts to use FU when none available
system.switch_cpus.iq.fu_full::FloatAdd             0      0.00%      1.32% # attempts to use FU when none available
system.switch_cpus.iq.fu_full::FloatCmp             0      0.00%      1.32% # attempts to use FU when none available
system.switch_cpus.iq.fu_full::FloatCvt             0      0.00%      1.32% # attempts to use FU when none available
system.switch_cpus.iq.fu_full::FloatMult            0      0.00%      1.32% # attempts to use FU when none available
system.switch_cpus.iq.fu_full::FloatMultAcc            0      0.00%      1.32% # attempts to use FU when none available
system.switch_cpus.iq.fu_full::FloatDiv             0      0.00%      1.32% # attempts to use FU when none available
system.switch_cpus.iq.fu_full::FloatMisc            0      0.00%      1.32% # attempts to use FU when none available
system.switch_cpus.iq.fu_full::FloatSqrt            0      0.00%      1.32% # attempts to use FU when none available
system.switch_cpus.iq.fu_full::SimdAdd              0      0.00%      1.32% # attempts to use FU when none available
system.switch_cpus.iq.fu_full::SimdAddAcc            0      0.00%      1.32% # attempts to use FU when none available
system.switch_cpus.iq.fu_full::SimdAlu            713      0.07%      1.39% # attempts to use FU when none available
system.switch_cpus.iq.fu_full::SimdCmp              0      0.00%      1.39% # attempts to use FU when none available
system.switch_cpus.iq.fu_full::SimdCvt              0      0.00%      1.39% # attempts to use FU when none available
system.switch_cpus.iq.fu_full::SimdMisc           363      0.04%      1.42% # attempts to use FU when none available
system.switch_cpus.iq.fu_full::SimdMult             0      0.00%      1.42% # attempts to use FU when none available
system.switch_cpus.iq.fu_full::SimdMultAcc            0      0.00%      1.42% # attempts to use FU when none available
system.switch_cpus.iq.fu_full::SimdShift            0      0.00%      1.42% # attempts to use FU when none available
system.switch_cpus.iq.fu_full::SimdShiftAcc            0      0.00%      1.42% # attempts to use FU when none available
system.switch_cpus.iq.fu_full::SimdDiv              0      0.00%      1.42% # attempts to use FU when none available
system.switch_cpus.iq.fu_full::SimdSqrt             0      0.00%      1.42% # attempts to use FU when none available
system.switch_cpus.iq.fu_full::SimdFloatAdd       116029     11.40%     12.82% # attempts to use FU when none available
system.switch_cpus.iq.fu_full::SimdFloatAlu            0      0.00%     12.82% # attempts to use FU when none available
system.switch_cpus.iq.fu_full::SimdFloatCmp            0      0.00%     12.82% # attempts to use FU when none available
system.switch_cpus.iq.fu_full::SimdFloatCvt            0      0.00%     12.82% # attempts to use FU when none available
system.switch_cpus.iq.fu_full::SimdFloatDiv            0      0.00%     12.82% # attempts to use FU when none available
system.switch_cpus.iq.fu_full::SimdFloatMisc            0      0.00%     12.82% # attempts to use FU when none available
system.switch_cpus.iq.fu_full::SimdFloatMult       255175     25.07%     37.89% # attempts to use FU when none available
system.switch_cpus.iq.fu_full::SimdFloatMultAcc            0      0.00%     37.89% # attempts to use FU when none available
system.switch_cpus.iq.fu_full::SimdFloatSqrt            0      0.00%     37.89% # attempts to use FU when none available
system.switch_cpus.iq.fu_full::SimdReduceAdd            0      0.00%     37.89% # attempts to use FU when none available
system.switch_cpus.iq.fu_full::SimdReduceAlu            0      0.00%     37.89% # attempts to use FU when none available
system.switch_cpus.iq.fu_full::SimdReduceCmp            0      0.00%     37.89% # attempts to use FU when none available
system.switch_cpus.iq.fu_full::SimdFloatReduceAdd            0      0.00%     37.89% # attempts to use FU when none available
system.switch_cpus.iq.fu_full::SimdFloatReduceCmp            0      0.00%     37.89% # attempts to use FU when none available
system.switch_cpus.iq.fu_full::SimdAes              0      0.00%     37.89% # attempts to use FU when none available
system.switch_cpus.iq.fu_full::SimdAesMix            0      0.00%     37.89% # attempts to use FU when none available
system.switch_cpus.iq.fu_full::SimdSha1Hash            0      0.00%     37.89% # attempts to use FU when none available
system.switch_cpus.iq.fu_full::SimdSha1Hash2            0      0.00%     37.89% # attempts to use FU when none available
system.switch_cpus.iq.fu_full::SimdSha256Hash            0      0.00%     37.89% # attempts to use FU when none available
system.switch_cpus.iq.fu_full::SimdSha256Hash2            0      0.00%     37.89% # attempts to use FU when none available
system.switch_cpus.iq.fu_full::SimdShaSigma2            0      0.00%     37.89% # attempts to use FU when none available
system.switch_cpus.iq.fu_full::SimdShaSigma3            0      0.00%     37.89% # attempts to use FU when none available
system.switch_cpus.iq.fu_full::SimdPredAlu            0      0.00%     37.89% # attempts to use FU when none available
system.switch_cpus.iq.fu_full::MemRead          86543      8.50%     46.39% # attempts to use FU when none available
system.switch_cpus.iq.fu_full::MemWrite         14470      1.42%     47.81% # attempts to use FU when none available
system.switch_cpus.iq.fu_full::FloatMemRead       477685     46.92%     94.73% # attempts to use FU when none available
system.switch_cpus.iq.fu_full::FloatMemWrite        53661      5.27%    100.00% # attempts to use FU when none available
system.switch_cpus.iq.fu_full::IprAccess            0      0.00%    100.00% # attempts to use FU when none available
system.switch_cpus.iq.fu_full::InstPrefetch            0      0.00%    100.00% # attempts to use FU when none available
system.switch_cpus.iq.int_alu_accesses        2485742                       # Number of integer alu accesses
system.switch_cpus.iq.int_inst_queue_reads     19968608                       # Number of integer instruction queue reads
system.switch_cpus.iq.int_inst_queue_wakeup_accesses      2304014                       # Number of integer instruction queue wakeup accesses
system.switch_cpus.iq.int_inst_queue_writes      3152024                       # Number of integer instruction queue writes
system.switch_cpus.iq.iqInstsAdded           23273202                       # Number of instructions added to the IQ (excludes non-spec)
system.switch_cpus.iq.iqInstsIssued          23298453                       # Number of instructions issued
system.switch_cpus.iq.iqNonSpecInstsAdded         4836                       # Number of non-speculative instructions added to the IQ
system.switch_cpus.iq.iqSquashedInstsExamined       903337                       # Number of squashed instructions iterated over during squash; mainly for profiling
system.switch_cpus.iq.iqSquashedInstsIssued         4025                       # Number of squashed instructions issued
system.switch_cpus.iq.iqSquashedNonSpecRemoved         4431                       # Number of squashed non-spec instructions that were removed
system.switch_cpus.iq.iqSquashedOperandsExamined       612672                       # Number of squashed operands that are examined and possibly removed from graph
system.switch_cpus.iq.issued_per_cycle::samples     14996750                       # Number of insts issued each cycle
system.switch_cpus.iq.issued_per_cycle::mean     1.553567                       # Number of insts issued each cycle
system.switch_cpus.iq.issued_per_cycle::stdev     2.429614                       # Number of insts issued each cycle
system.switch_cpus.iq.issued_per_cycle::underflows            0      0.00%      0.00% # Number of insts issued each cycle
system.switch_cpus.iq.issued_per_cycle::0      9507295     63.40%     63.40% # Number of insts issued each cycle
system.switch_cpus.iq.issued_per_cycle::1       723464      4.82%     68.22% # Number of insts issued each cycle
system.switch_cpus.iq.issued_per_cycle::2       756560      5.04%     73.26% # Number of insts issued each cycle
system.switch_cpus.iq.issued_per_cycle::3       641316      4.28%     77.54% # Number of insts issued each cycle
system.switch_cpus.iq.issued_per_cycle::4       908279      6.06%     83.60% # Number of insts issued each cycle
system.switch_cpus.iq.issued_per_cycle::5       714401      4.76%     88.36% # Number of insts issued each cycle
system.switch_cpus.iq.issued_per_cycle::6       780093      5.20%     93.56% # Number of insts issued each cycle
system.switch_cpus.iq.issued_per_cycle::7       470494      3.14%     96.70% # Number of insts issued each cycle
system.switch_cpus.iq.issued_per_cycle::8       494848      3.30%    100.00% # Number of insts issued each cycle
system.switch_cpus.iq.issued_per_cycle::overflows            0      0.00%    100.00% # Number of insts issued each cycle
system.switch_cpus.iq.issued_per_cycle::min_value            0                       # Number of insts issued each cycle
system.switch_cpus.iq.issued_per_cycle::max_value            8                       # Number of insts issued each cycle
system.switch_cpus.iq.issued_per_cycle::total     14996750                       # Number of insts issued each cycle
system.switch_cpus.iq.rate                   1.540838                       # Inst issue rate
system.switch_cpus.iq.vec_alu_accesses              0                       # Number of vector alu accesses
system.switch_cpus.iq.vec_inst_queue_reads            0                       # Number of vector instruction queue reads
system.switch_cpus.iq.vec_inst_queue_wakeup_accesses            0                       # Number of vector instruction queue wakeup accesses
system.switch_cpus.iq.vec_inst_queue_writes            0                       # Number of vector instruction queue writes
system.switch_cpus.itb.rdAccesses                   0                       # TLB accesses on read requests
system.switch_cpus.itb.rdMisses                     0                       # TLB misses on read requests
system.switch_cpus.itb.wrAccesses             1122463                       # TLB accesses on write requests
system.switch_cpus.itb.wrMisses                   276                       # TLB misses on write requests
system.switch_cpus.memDep0.conflictingLoads        19890                       # Number of conflicting loads.
system.switch_cpus.memDep0.conflictingStores       110528                       # Number of conflicting stores.
system.switch_cpus.memDep0.insertedLoads      7709601                       # Number of loads inserted to the mem dependence unit.
system.switch_cpus.memDep0.insertedStores      2445442                       # Number of stores inserted to the mem dependence unit.
system.switch_cpus.misc_regfile_reads        10745234                       # number of misc regfile reads
system.switch_cpus.misc_regfile_writes              1                       # number of misc regfile writes
system.switch_cpus.numCycles                 15120638                       # number of cpu cycles simulated
system.switch_cpus.numWorkItemsCompleted            0                       # number of work items this cpu completed
system.switch_cpus.numWorkItemsStarted              0                       # number of work items this cpu started
system.switch_cpus.rename.BlockCycles         4245953                       # Number of cycles rename is blocking
system.switch_cpus.rename.CommittedMaps      20443121                       # Number of HB maps that are committed
system.switch_cpus.rename.IQFullEvents          90767                       # Number of times rename has blocked due to IQ full
system.switch_cpus.rename.IdleCycles          1102759                       # Number of cycles rename is idle
system.switch_cpus.rename.LQFullEvents        1770041                       # Number of times rename has blocked due to LQ full
system.switch_cpus.rename.ROBFullEvents         24648                       # Number of times rename has blocked due to ROB full
system.switch_cpus.rename.RenameLookups      68428936                       # Number of register rename lookups that rename has made
system.switch_cpus.rename.RenamedInsts       23355197                       # Number of instructions processed by rename
system.switch_cpus.rename.RenamedOperands     21354138                       # Number of destination operands rename has renamed
system.switch_cpus.rename.RunCycles           2840256                       # Number of cycles rename is running
system.switch_cpus.rename.SQFullEvents        4796921                       # Number of times rename has blocked due to SQ full
system.switch_cpus.rename.SquashCycles          13321                       # Number of cycles rename is squashing
system.switch_cpus.rename.UnblockCycles       6793996                       # Number of cycles rename is unblocking
system.switch_cpus.rename.UndoneMaps           910970                       # Number of HB maps that are undone due to squashing
system.switch_cpus.rename.fp_rename_lookups     34762679                       # Number of floating rename lookups
system.switch_cpus.rename.int_rename_lookups     22117883                       # Number of integer rename lookups
system.switch_cpus.rename.serializeStallCycles          128                       # count of cycles rename stalled for serializing inst
system.switch_cpus.rename.serializingInsts           12                       # count of serializing insts renamed
system.switch_cpus.rename.skidInsts           3948413                       # count of insts added to the skid buffer
system.switch_cpus.rename.tempSerializingInsts           12                       # count of temporary serializing insts renamed
system.switch_cpus.rob.rob_reads             36448464                       # The number of ROB reads
system.switch_cpus.rob.rob_writes            46426525                       # The number of ROB writes
system.switch_cpus.timesIdled                    1398                       # Number of times that the entire CPU went into an idle state and unscheduled itself
system.tol2bus.snoop_filter.hit_multi_requests            8                       # Number of requests hitting in the snoop filter with multiple (>1) holders of the requested data.
system.tol2bus.snoop_filter.hit_multi_snoops            0                       # Number of snoops hitting in the snoop filter with multiple (>1) holders of the requested data.
system.tol2bus.snoop_filter.hit_single_requests       119239                       # Number of requests hitting in the snoop filter with a single holder of the requested data.
system.tol2bus.snoop_filter.hit_single_snoops         7517                       # Number of snoops hitting in the snoop filter with a single holder of the requested data.
system.tol2bus.snoop_filter.tot_requests       240021                       # Total number of requests made to the snoop filter.
system.tol2bus.snoop_filter.tot_snoops           7517                       # Total number of snoops made to the snoop filter.
system.membus.pwrStateResidencyTicks::UNDEFINED 371668655212500                       # Cumulative time (in ticks) in various power states
system.membus.trans_dist::ReadResp              60612                       # Transaction distribution
system.membus.trans_dist::WritebackDirty        27141                       # Transaction distribution
system.membus.trans_dist::CleanEvict            50818                       # Transaction distribution
system.membus.trans_dist::ReadExReq             26088                       # Transaction distribution
system.membus.trans_dist::ReadExResp            26088                       # Transaction distribution
system.membus.trans_dist::ReadSharedReq         60612                       # Transaction distribution
system.membus.pkt_count_system.l2.mem_side::system.mem_ctrls.port       251359                       # Packet count per connected master and slave (bytes)
system.membus.pkt_count_system.l2.mem_side::total       251359                       # Packet count per connected master and slave (bytes)
system.membus.pkt_count::total                 251359                       # Packet count per connected master and slave (bytes)
system.membus.pkt_size_system.l2.mem_side::system.mem_ctrls.port      7285824                       # Cumulative packet size per connected master and slave (bytes)
system.membus.pkt_size_system.l2.mem_side::total      7285824                       # Cumulative packet size per connected master and slave (bytes)
system.membus.pkt_size::total                 7285824                       # Cumulative packet size per connected master and slave (bytes)
system.membus.snoops                                0                       # Total snoops (count)
system.membus.snoopTraffic                          0                       # Total snoop traffic (bytes)
system.membus.snoop_fanout::samples             86700                       # Request fanout histogram
system.membus.snoop_fanout::mean                    0                       # Request fanout histogram
system.membus.snoop_fanout::stdev                   0                       # Request fanout histogram
system.membus.snoop_fanout::underflows              0      0.00%      0.00% # Request fanout histogram
system.membus.snoop_fanout::0                   86700    100.00%    100.00% # Request fanout histogram
system.membus.snoop_fanout::1                       0      0.00%    100.00% # Request fanout histogram
system.membus.snoop_fanout::overflows               0      0.00%    100.00% # Request fanout histogram
system.membus.snoop_fanout::min_value               0                       # Request fanout histogram
system.membus.snoop_fanout::max_value               0                       # Request fanout histogram
system.membus.snoop_fanout::total               86700                       # Request fanout histogram
system.membus.reqLayer2.occupancy           289223500                       # Layer occupancy (ticks)
system.membus.reqLayer2.utilization               3.8                       # Layer utilization (%)
system.membus.respLayer1.occupancy          479340000                       # Layer occupancy (ticks)
system.membus.respLayer1.utilization              6.3                       # Layer utilization (%)
system.switch_cpus.pwrStateResidencyTicks::OFF   7560330000                       # Cumulative time (in ticks) in various power states
system.switch_cpus.dtb.walker.pwrStateResidencyTicks::UNDEFINED 371668655212500                       # Cumulative time (in ticks) in various power states
system.switch_cpus.itb.walker.pwrStateResidencyTicks::UNDEFINED 371668655212500                       # Cumulative time (in ticks) in various power states
system.tol2bus.pwrStateResidencyTicks::UNDEFINED 371668655212500                       # Cumulative time (in ticks) in various power states
system.tol2bus.trans_dist::ReadResp             85126                       # Transaction distribution
system.tol2bus.trans_dist::WritebackDirty        79450                       # Transaction distribution
system.tol2bus.trans_dist::WritebackClean         1754                       # Transaction distribution
system.tol2bus.trans_dist::CleanEvict          119819                       # Transaction distribution
system.tol2bus.trans_dist::UpgradeReq               3                       # Transaction distribution
system.tol2bus.trans_dist::UpgradeResp              3                       # Transaction distribution
system.tol2bus.trans_dist::ReadExReq            35651                       # Transaction distribution
system.tol2bus.trans_dist::ReadExResp           35651                       # Transaction distribution
system.tol2bus.trans_dist::ReadCleanReq          2268                       # Transaction distribution
system.tol2bus.trans_dist::ReadSharedReq        82860                       # Transaction distribution
system.tol2bus.pkt_count_system.cpu.icache.mem_side::system.l2.cpu_side         6286                       # Packet count per connected master and slave (bytes)
system.tol2bus.pkt_count_system.cpu.dcache.mem_side::system.l2.cpu_side       354511                       # Packet count per connected master and slave (bytes)
system.tol2bus.pkt_count::total                360797                       # Packet count per connected master and slave (bytes)
system.tol2bus.pkt_size_system.cpu.icache.mem_side::system.l2.cpu_side       257152                       # Cumulative packet size per connected master and slave (bytes)
system.tol2bus.pkt_size_system.cpu.dcache.mem_side::system.l2.cpu_side     10932352                       # Cumulative packet size per connected master and slave (bytes)
system.tol2bus.pkt_size::total               11189504                       # Cumulative packet size per connected master and slave (bytes)
system.tol2bus.snoops                           81788                       # Total snoops (count)
system.tol2bus.snoopTraffic                   1737280                       # Total snoop traffic (bytes)
system.tol2bus.snoop_fanout::samples           202566                       # Request fanout histogram
system.tol2bus.snoop_fanout::mean            0.037148                       # Request fanout histogram
system.tol2bus.snoop_fanout::stdev           0.189126                       # Request fanout histogram
system.tol2bus.snoop_fanout::underflows             0      0.00%      0.00% # Request fanout histogram
system.tol2bus.snoop_fanout::0                 195041     96.29%     96.29% # Request fanout histogram
system.tol2bus.snoop_fanout::1                   7525      3.71%    100.00% # Request fanout histogram
system.tol2bus.snoop_fanout::2                      0      0.00%    100.00% # Request fanout histogram
system.tol2bus.snoop_fanout::3                      0      0.00%    100.00% # Request fanout histogram
system.tol2bus.snoop_fanout::4                      0      0.00%    100.00% # Request fanout histogram
system.tol2bus.snoop_fanout::overflows              0      0.00%    100.00% # Request fanout histogram
system.tol2bus.snoop_fanout::min_value              0                       # Request fanout histogram
system.tol2bus.snoop_fanout::max_value              1                       # Request fanout histogram
system.tol2bus.snoop_fanout::total             202566                       # Request fanout histogram
system.tol2bus.reqLayer0.occupancy          174070500                       # Layer occupancy (ticks)
system.tol2bus.reqLayer0.utilization              2.3                       # Layer utilization (%)
system.tol2bus.respLayer1.occupancy         177759000                       # Layer occupancy (ticks)
system.tol2bus.respLayer1.utilization             2.4                       # Layer utilization (%)
system.tol2bus.respLayer0.occupancy           3399998                       # Layer occupancy (ticks)
system.tol2bus.respLayer0.utilization             0.0                       # Layer utilization (%)
system.voltage_domain.voltage                       1                       # Voltage in Volts
system.clk_domain.clock                          1000                       # Clock period in ticks
system.l2.pwrStateResidencyTicks::UNDEFINED 371668655212500                       # Cumulative time (in ticks) in various power states
system.l2.demand_hits::.switch_cpus.inst          870                       # number of demand (read+write) hits
system.l2.demand_hits::.switch_cpus.data        33205                       # number of demand (read+write) hits
system.l2.demand_hits::total                    34075                       # number of demand (read+write) hits
system.l2.overall_hits::.switch_cpus.inst          870                       # number of overall hits
system.l2.overall_hits::.switch_cpus.data        33205                       # number of overall hits
system.l2.overall_hits::total                   34075                       # number of overall hits
system.l2.demand_misses::.cpu.inst                  2                       # number of demand (read+write) misses
system.l2.demand_misses::.cpu.data                  4                       # number of demand (read+write) misses
system.l2.demand_misses::.switch_cpus.inst         1392                       # number of demand (read+write) misses
system.l2.demand_misses::.switch_cpus.data        85302                       # number of demand (read+write) misses
system.l2.demand_misses::total                  86700                       # number of demand (read+write) misses
system.l2.overall_misses::.cpu.inst                 2                       # number of overall misses
system.l2.overall_misses::.cpu.data                 4                       # number of overall misses
system.l2.overall_misses::.switch_cpus.inst         1392                       # number of overall misses
system.l2.overall_misses::.switch_cpus.data        85302                       # number of overall misses
system.l2.overall_misses::total                 86700                       # number of overall misses
system.l2.demand_miss_latency::.switch_cpus.inst    114309500                       # number of demand (read+write) miss cycles
system.l2.demand_miss_latency::.switch_cpus.data   8734094000                       # number of demand (read+write) miss cycles
system.l2.demand_miss_latency::total       8848403500                       # number of demand (read+write) miss cycles
system.l2.overall_miss_latency::.switch_cpus.inst    114309500                       # number of overall miss cycles
system.l2.overall_miss_latency::.switch_cpus.data   8734094000                       # number of overall miss cycles
system.l2.overall_miss_latency::total      8848403500                       # number of overall miss cycles
system.l2.demand_accesses::.cpu.inst                2                       # number of demand (read+write) accesses
system.l2.demand_accesses::.cpu.data                4                       # number of demand (read+write) accesses
system.l2.demand_accesses::.switch_cpus.inst         2262                       # number of demand (read+write) accesses
system.l2.demand_accesses::.switch_cpus.data       118507                       # number of demand (read+write) accesses
system.l2.demand_accesses::total               120775                       # number of demand (read+write) accesses
system.l2.overall_accesses::.cpu.inst               2                       # number of overall (read+write) accesses
system.l2.overall_accesses::.cpu.data               4                       # number of overall (read+write) accesses
system.l2.overall_accesses::.switch_cpus.inst         2262                       # number of overall (read+write) accesses
system.l2.overall_accesses::.switch_cpus.data       118507                       # number of overall (read+write) accesses
system.l2.overall_accesses::total              120775                       # number of overall (read+write) accesses
system.l2.demand_miss_rate::.cpu.inst               1                       # miss rate for demand accesses
system.l2.demand_miss_rate::.cpu.data               1                       # miss rate for demand accesses
system.l2.demand_miss_rate::.switch_cpus.inst     0.615385                       # miss rate for demand accesses
system.l2.demand_miss_rate::.switch_cpus.data     0.719806                       # miss rate for demand accesses
system.l2.demand_miss_rate::total            0.717864                       # miss rate for demand accesses
system.l2.overall_miss_rate::.cpu.inst              1                       # miss rate for overall accesses
system.l2.overall_miss_rate::.cpu.data              1                       # miss rate for overall accesses
system.l2.overall_miss_rate::.switch_cpus.inst     0.615385                       # miss rate for overall accesses
system.l2.overall_miss_rate::.switch_cpus.data     0.719806                       # miss rate for overall accesses
system.l2.overall_miss_rate::total           0.717864                       # miss rate for overall accesses
system.l2.demand_avg_miss_latency::.switch_cpus.inst 82118.893678                       # average overall miss latency
system.l2.demand_avg_miss_latency::.switch_cpus.data 102390.260486                       # average overall miss latency
system.l2.demand_avg_miss_latency::total 102057.710496                       # average overall miss latency
system.l2.overall_avg_miss_latency::.switch_cpus.inst 82118.893678                       # average overall miss latency
system.l2.overall_avg_miss_latency::.switch_cpus.data 102390.260486                       # average overall miss latency
system.l2.overall_avg_miss_latency::total 102057.710496                       # average overall miss latency
system.l2.blocked_cycles::no_mshrs                  0                       # number of cycles access was blocked
system.l2.blocked_cycles::no_targets                0                       # number of cycles access was blocked
system.l2.blocked::no_mshrs                         0                       # number of cycles access was blocked
system.l2.blocked::no_targets                       0                       # number of cycles access was blocked
system.l2.avg_blocked_cycles::no_mshrs            nan                       # average number of cycles each access was blocked
system.l2.avg_blocked_cycles::no_targets          nan                       # average number of cycles each access was blocked
system.l2.writebacks::.writebacks               27141                       # number of writebacks
system.l2.writebacks::total                     27141                       # number of writebacks
system.l2.demand_mshr_misses::.switch_cpus.inst         1392                       # number of demand (read+write) MSHR misses
system.l2.demand_mshr_misses::.switch_cpus.data        85302                       # number of demand (read+write) MSHR misses
system.l2.demand_mshr_misses::total             86694                       # number of demand (read+write) MSHR misses
system.l2.overall_mshr_misses::.switch_cpus.inst         1392                       # number of overall MSHR misses
system.l2.overall_mshr_misses::.switch_cpus.data        85302                       # number of overall MSHR misses
system.l2.overall_mshr_misses::total            86694                       # number of overall MSHR misses
system.l2.demand_mshr_miss_latency::.switch_cpus.inst    100389500                       # number of demand (read+write) MSHR miss cycles
system.l2.demand_mshr_miss_latency::.switch_cpus.data   7881074000                       # number of demand (read+write) MSHR miss cycles
system.l2.demand_mshr_miss_latency::total   7981463500                       # number of demand (read+write) MSHR miss cycles
system.l2.overall_mshr_miss_latency::.switch_cpus.inst    100389500                       # number of overall MSHR miss cycles
system.l2.overall_mshr_miss_latency::.switch_cpus.data   7881074000                       # number of overall MSHR miss cycles
system.l2.overall_mshr_miss_latency::total   7981463500                       # number of overall MSHR miss cycles
system.l2.demand_mshr_miss_rate::.switch_cpus.inst     0.615385                       # mshr miss rate for demand accesses
system.l2.demand_mshr_miss_rate::.switch_cpus.data     0.719806                       # mshr miss rate for demand accesses
system.l2.demand_mshr_miss_rate::total       0.717814                       # mshr miss rate for demand accesses
system.l2.overall_mshr_miss_rate::.switch_cpus.inst     0.615385                       # mshr miss rate for overall accesses
system.l2.overall_mshr_miss_rate::.switch_cpus.data     0.719806                       # mshr miss rate for overall accesses
system.l2.overall_mshr_miss_rate::total      0.717814                       # mshr miss rate for overall accesses
system.l2.demand_avg_mshr_miss_latency::.switch_cpus.inst 72118.893678                       # average overall mshr miss latency
system.l2.demand_avg_mshr_miss_latency::.switch_cpus.data 92390.260486                       # average overall mshr miss latency
system.l2.demand_avg_mshr_miss_latency::total 92064.773802                       # average overall mshr miss latency
system.l2.overall_avg_mshr_miss_latency::.switch_cpus.inst 72118.893678                       # average overall mshr miss latency
system.l2.overall_avg_mshr_miss_latency::.switch_cpus.data 92390.260486                       # average overall mshr miss latency
system.l2.overall_avg_mshr_miss_latency::total 92064.773802                       # average overall mshr miss latency
system.l2.replacements                          81784                       # number of replacements
system.l2.WritebackDirty_hits::.writebacks        52309                       # number of WritebackDirty hits
system.l2.WritebackDirty_hits::total            52309                       # number of WritebackDirty hits
system.l2.WritebackDirty_accesses::.writebacks        52309                       # number of WritebackDirty accesses(hits+misses)
system.l2.WritebackDirty_accesses::total        52309                       # number of WritebackDirty accesses(hits+misses)
system.l2.WritebackClean_hits::.writebacks         1752                       # number of WritebackClean hits
system.l2.WritebackClean_hits::total             1752                       # number of WritebackClean hits
system.l2.WritebackClean_accesses::.writebacks         1752                       # number of WritebackClean accesses(hits+misses)
system.l2.WritebackClean_accesses::total         1752                       # number of WritebackClean accesses(hits+misses)
system.l2.CleanEvict_mshr_misses::.writebacks         3692                       # number of CleanEvict MSHR misses
system.l2.CleanEvict_mshr_misses::total          3692                       # number of CleanEvict MSHR misses
system.l2.CleanEvict_mshr_miss_rate::.writebacks          inf                       # mshr miss rate for CleanEvict accesses
system.l2.CleanEvict_mshr_miss_rate::total          inf                       # mshr miss rate for CleanEvict accesses
system.l2.UpgradeReq_hits::.switch_cpus.data            3                       # number of UpgradeReq hits
system.l2.UpgradeReq_hits::total                    3                       # number of UpgradeReq hits
system.l2.UpgradeReq_accesses::.switch_cpus.data            3                       # number of UpgradeReq accesses(hits+misses)
system.l2.UpgradeReq_accesses::total                3                       # number of UpgradeReq accesses(hits+misses)
system.l2.ReadExReq_hits::.switch_cpus.data         9563                       # number of ReadExReq hits
system.l2.ReadExReq_hits::total                  9563                       # number of ReadExReq hits
system.l2.ReadExReq_misses::.switch_cpus.data        26088                       # number of ReadExReq misses
system.l2.ReadExReq_misses::total               26088                       # number of ReadExReq misses
system.l2.ReadExReq_miss_latency::.switch_cpus.data   2565905500                       # number of ReadExReq miss cycles
system.l2.ReadExReq_miss_latency::total    2565905500                       # number of ReadExReq miss cycles
system.l2.ReadExReq_accesses::.switch_cpus.data        35651                       # number of ReadExReq accesses(hits+misses)
system.l2.ReadExReq_accesses::total             35651                       # number of ReadExReq accesses(hits+misses)
system.l2.ReadExReq_miss_rate::.switch_cpus.data     0.731761                       # miss rate for ReadExReq accesses
system.l2.ReadExReq_miss_rate::total         0.731761                       # miss rate for ReadExReq accesses
system.l2.ReadExReq_avg_miss_latency::.switch_cpus.data 98355.776602                       # average ReadExReq miss latency
system.l2.ReadExReq_avg_miss_latency::total 98355.776602                       # average ReadExReq miss latency
system.l2.ReadExReq_mshr_misses::.switch_cpus.data        26088                       # number of ReadExReq MSHR misses
system.l2.ReadExReq_mshr_misses::total          26088                       # number of ReadExReq MSHR misses
system.l2.ReadExReq_mshr_miss_latency::.switch_cpus.data   2305025500                       # number of ReadExReq MSHR miss cycles
system.l2.ReadExReq_mshr_miss_latency::total   2305025500                       # number of ReadExReq MSHR miss cycles
system.l2.ReadExReq_mshr_miss_rate::.switch_cpus.data     0.731761                       # mshr miss rate for ReadExReq accesses
system.l2.ReadExReq_mshr_miss_rate::total     0.731761                       # mshr miss rate for ReadExReq accesses
system.l2.ReadExReq_avg_mshr_miss_latency::.switch_cpus.data 88355.776602                       # average ReadExReq mshr miss latency
system.l2.ReadExReq_avg_mshr_miss_latency::total 88355.776602                       # average ReadExReq mshr miss latency
system.l2.ReadCleanReq_hits::.switch_cpus.inst          870                       # number of ReadCleanReq hits
system.l2.ReadCleanReq_hits::total                870                       # number of ReadCleanReq hits
system.l2.ReadCleanReq_misses::.cpu.inst            2                       # number of ReadCleanReq misses
system.l2.ReadCleanReq_misses::.switch_cpus.inst         1392                       # number of ReadCleanReq misses
system.l2.ReadCleanReq_misses::total             1394                       # number of ReadCleanReq misses
system.l2.ReadCleanReq_miss_latency::.switch_cpus.inst    114309500                       # number of ReadCleanReq miss cycles
system.l2.ReadCleanReq_miss_latency::total    114309500                       # number of ReadCleanReq miss cycles
system.l2.ReadCleanReq_accesses::.cpu.inst            2                       # number of ReadCleanReq accesses(hits+misses)
system.l2.ReadCleanReq_accesses::.switch_cpus.inst         2262                       # number of ReadCleanReq accesses(hits+misses)
[...]
system.cpu.itb_walker_cache.tags.tag_accesses            0                       # Number of tag accesses
system.cpu.itb_walker_cache.tags.data_accesses            0                       # Number of data accesses
system.cpu.itb.walker.pwrStateResidencyTicks::UNDEFINED 371688773158500                       # Cumulative time (in ticks) in various power states
system.cpu.dtb_walker_cache.pwrStateResidencyTicks::UNDEFINED 371688773158500                       # Cumulative time (in ticks) in various power states
system.cpu.dtb_walker_cache.blocked_cycles::no_mshrs            0                       # number of cycles access was blocked
system.cpu.dtb_walker_cache.blocked_cycles::no_targets            0                       # number of cycles access was blocked
system.cpu.dtb_walker_cache.blocked::no_mshrs            0                       # number of cycles access was blocked
system.cpu.dtb_walker_cache.blocked::no_targets            0                       # number of cycles access was blocked
system.cpu.dtb_walker_cache.avg_blocked_cycles::no_mshrs          nan                       # average number of cycles each access was blocked
system.cpu.dtb_walker_cache.avg_blocked_cycles::no_targets          nan                       # average number of cycles each access was blocked
system.cpu.dtb_walker_cache.replacements            0                       # number of replacements
system.cpu.dtb_walker_cache.tags.pwrStateResidencyTicks::UNDEFINED 371688773158500                       # Cumulative time (in ticks) in various power states
system.cpu.dtb_walker_cache.tags.tagsinuse            0                       # Cycle average of tags in use
system.cpu.dtb_walker_cache.tags.total_refs            0                       # Total number of references to valid blocks.
system.cpu.dtb_walker_cache.tags.sampled_refs            0                       # Sample count of references to valid blocks.
system.cpu.dtb_walker_cache.tags.avg_refs          nan                       # Average number of references to valid blocks.
system.cpu.dtb_walker_cache.tags.warmup_cycle            0                       # Cycle when the warmup percentage was hit.
system.cpu.dtb_walker_cache.tags.tag_accesses            0                       # Number of tag accesses
system.cpu.dtb_walker_cache.tags.data_accesses            0                       # Number of data accesses
system.cpu.dcache.pwrStateResidencyTicks::UNDEFINED 371688773158500                       # Cumulative time (in ticks) in various power states
system.cpu.dcache.demand_hits::.cpu.data            4                       # number of demand (read+write) hits
system.cpu.dcache.demand_hits::.switch_cpus.data     36849210                       # number of demand (read+write) hits
system.cpu.dcache.demand_hits::total         36849214                       # number of demand (read+write) hits
system.cpu.dcache.overall_hits::.cpu.data            4                       # number of overall hits
system.cpu.dcache.overall_hits::.switch_cpus.data     36906423                       # number of overall hits
system.cpu.dcache.overall_hits::total        36906427                       # number of overall hits
system.cpu.dcache.demand_misses::.cpu.data            4                       # number of demand (read+write) misses
system.cpu.dcache.demand_misses::.switch_cpus.data       666472                       # number of demand (read+write) misses
system.cpu.dcache.demand_misses::total         666476                       # number of demand (read+write) misses
system.cpu.dcache.overall_misses::.cpu.data            4                       # number of overall misses
system.cpu.dcache.overall_misses::.switch_cpus.data       682867                       # number of overall misses
system.cpu.dcache.overall_misses::total        682871                       # number of overall misses
system.cpu.dcache.demand_miss_latency::.switch_cpus.data  46865192862                       # number of demand (read+write) miss cycles
system.cpu.dcache.demand_miss_latency::total  46865192862                       # number of demand (read+write) miss cycles
system.cpu.dcache.overall_miss_latency::.switch_cpus.data  46865192862                       # number of overall miss cycles
system.cpu.dcache.overall_miss_latency::total  46865192862                       # number of overall miss cycles
system.cpu.dcache.demand_accesses::.cpu.data            8                       # number of demand (read+write) accesses
system.cpu.dcache.demand_accesses::.switch_cpus.data     37515682                       # number of demand (read+write) accesses
system.cpu.dcache.demand_accesses::total     37515690                       # number of demand (read+write) accesses
system.cpu.dcache.overall_accesses::.cpu.data            8                       # number of overall (read+write) accesses
system.cpu.dcache.overall_accesses::.switch_cpus.data     37589290                       # number of overall (read+write) accesses
system.cpu.dcache.overall_accesses::total     37589298                       # number of overall (read+write) accesses
system.cpu.dcache.demand_miss_rate::.cpu.data     0.500000                       # miss rate for demand accesses
system.cpu.dcache.demand_miss_rate::.switch_cpus.data     0.017765                       # miss rate for demand accesses
system.cpu.dcache.demand_miss_rate::total     0.017765                       # miss rate for demand accesses
system.cpu.dcache.overall_miss_rate::.cpu.data     0.500000                       # miss rate for overall accesses
system.cpu.dcache.overall_miss_rate::.switch_cpus.data     0.018167                       # miss rate for overall accesses
system.cpu.dcache.overall_miss_rate::total     0.018167                       # miss rate for overall accesses
system.cpu.dcache.demand_avg_miss_latency::.switch_cpus.data 70318.322243                       # average overall miss latency
system.cpu.dcache.demand_avg_miss_latency::total 70317.900212                       # average overall miss latency
system.cpu.dcache.overall_avg_miss_latency::.switch_cpus.data 68630.044887                       # average overall miss latency
system.cpu.dcache.overall_avg_miss_latency::total 68629.642878                       # average overall miss latency
system.cpu.dcache.blocked_cycles::no_mshrs      7736509                       # number of cycles access was blocked
system.cpu.dcache.blocked_cycles::no_targets         1164                       # number of cycles access was blocked
system.cpu.dcache.blocked::no_mshrs            130790                       # number of cycles access was blocked
system.cpu.dcache.blocked::no_targets               5                       # number of cycles access was blocked
system.cpu.dcache.avg_blocked_cycles::no_mshrs    59.152145                       # average number of cycles each access was blocked
system.cpu.dcache.avg_blocked_cycles::no_targets   232.800000                       # average number of cycles each access was blocked
system.cpu.dcache.writebacks::.writebacks       216204                       # number of writebacks
system.cpu.dcache.writebacks::total            216204                       # number of writebacks
system.cpu.dcache.demand_mshr_hits::.switch_cpus.data       220423                       # number of demand (read+write) MSHR hits
system.cpu.dcache.demand_mshr_hits::total       220423                       # number of demand (read+write) MSHR hits
system.cpu.dcache.overall_mshr_hits::.switch_cpus.data       220423                       # number of overall MSHR hits
system.cpu.dcache.overall_mshr_hits::total       220423                       # number of overall MSHR hits
system.cpu.dcache.demand_mshr_misses::.switch_cpus.data       446049                       # number of demand (read+write) MSHR misses
system.cpu.dcache.demand_mshr_misses::total       446049                       # number of demand (read+write) MSHR misses
system.cpu.dcache.overall_mshr_misses::.switch_cpus.data       451492                       # number of overall MSHR misses
system.cpu.dcache.overall_mshr_misses::total       451492                       # number of overall MSHR misses
system.cpu.dcache.demand_mshr_miss_latency::.switch_cpus.data  32875425362                       # number of demand (read+write) MSHR miss cycles
system.cpu.dcache.demand_mshr_miss_latency::total  32875425362                       # number of demand (read+write) MSHR miss cycles
system.cpu.dcache.overall_mshr_miss_latency::.switch_cpus.data  33345837362                       # number of overall MSHR miss cycles
system.cpu.dcache.overall_mshr_miss_latency::total  33345837362                       # number of overall MSHR miss cycles
system.cpu.dcache.demand_mshr_miss_rate::.switch_cpus.data     0.011890                       # mshr miss rate for demand accesses
system.cpu.dcache.demand_mshr_miss_rate::total     0.011890                       # mshr miss rate for demand accesses
system.cpu.dcache.overall_mshr_miss_rate::.switch_cpus.data     0.012011                       # mshr miss rate for overall accesses
system.cpu.dcache.overall_mshr_miss_rate::total     0.012011                       # mshr miss rate for overall accesses
system.cpu.dcache.demand_avg_mshr_miss_latency::.switch_cpus.data 73703.618576                       # average overall mshr miss latency
system.cpu.dcache.demand_avg_mshr_miss_latency::total 73703.618576                       # average overall mshr miss latency
system.cpu.dcache.overall_avg_mshr_miss_latency::.switch_cpus.data 73856.983871                       # average overall mshr miss latency
system.cpu.dcache.overall_avg_mshr_miss_latency::total 73856.983871                       # average overall mshr miss latency
system.cpu.dcache.replacements                 450469                       # number of replacements
system.cpu.dcache.ReadReq_hits::.cpu.data            4                       # number of ReadReq hits
system.cpu.dcache.ReadReq_hits::.switch_cpus.data     27994579                       # number of ReadReq hits
system.cpu.dcache.ReadReq_hits::total        27994583                       # number of ReadReq hits
system.cpu.dcache.ReadReq_misses::.cpu.data            4                       # number of ReadReq misses
system.cpu.dcache.ReadReq_misses::.switch_cpus.data       538386                       # number of ReadReq misses
system.cpu.dcache.ReadReq_misses::total        538390                       # number of ReadReq misses
system.cpu.dcache.ReadReq_miss_latency::.switch_cpus.data  37201004500                       # number of ReadReq miss cycles
system.cpu.dcache.ReadReq_miss_latency::total  37201004500                       # number of ReadReq miss cycles
system.cpu.dcache.ReadReq_accesses::.cpu.data            8                       # number of ReadReq accesses(hits+misses)
system.cpu.dcache.ReadReq_accesses::.switch_cpus.data     28532965                       # number of ReadReq accesses(hits+misses)
system.cpu.dcache.ReadReq_accesses::total     28532973                       # number of ReadReq accesses(hits+misses)
system.cpu.dcache.ReadReq_miss_rate::.cpu.data     0.500000                       # miss rate for ReadReq accesses
system.cpu.dcache.ReadReq_miss_rate::.switch_cpus.data     0.018869                       # miss rate for ReadReq accesses
system.cpu.dcache.ReadReq_miss_rate::total     0.018869                       # miss rate for ReadReq accesses
system.cpu.dcache.ReadReq_avg_miss_latency::.switch_cpus.data 69097.273146                       # average ReadReq miss latency
system.cpu.dcache.ReadReq_avg_miss_latency::total 69096.759784                       # average ReadReq miss latency
system.cpu.dcache.ReadReq_mshr_hits::.switch_cpus.data       220316                       # number of ReadReq MSHR hits
system.cpu.dcache.ReadReq_mshr_hits::total       220316                       # number of ReadReq MSHR hits
system.cpu.dcache.ReadReq_mshr_misses::.switch_cpus.data       318070                       # number of ReadReq MSHR misses
system.cpu.dcache.ReadReq_mshr_misses::total       318070                       # number of ReadReq MSHR misses
system.cpu.dcache.ReadReq_mshr_miss_latency::.switch_cpus.data  23340579000                       # number of ReadReq MSHR miss cycles
system.cpu.dcache.ReadReq_mshr_miss_latency::total  23340579000                       # number of ReadReq MSHR miss cycles
system.cpu.dcache.ReadReq_mshr_miss_rate::.switch_cpus.data     0.011147                       # mshr miss rate for ReadReq accesses
system.cpu.dcache.ReadReq_mshr_miss_rate::total     0.011147                       # mshr miss rate for ReadReq accesses
system.cpu.dcache.ReadReq_avg_mshr_miss_latency::.switch_cpus.data 73381.893923                       # average ReadReq mshr miss latency
system.cpu.dcache.ReadReq_avg_mshr_miss_latency::total 73381.893923                       # average ReadReq mshr miss latency
system.cpu.dcache.WriteReq_hits::.switch_cpus.data      8854631                       # number of WriteReq hits
system.cpu.dcache.WriteReq_hits::total        8854631                       # number of WriteReq hits
system.cpu.dcache.WriteReq_misses::.switch_cpus.data       128086                       # number of WriteReq misses
system.cpu.dcache.WriteReq_misses::total       128086                       # number of WriteReq misses
system.cpu.dcache.WriteReq_miss_latency::.switch_cpus.data   9664188362                       # number of WriteReq miss cycles
system.cpu.dcache.WriteReq_miss_latency::total   9664188362                       # number of WriteReq miss cycles
system.cpu.dcache.WriteReq_accesses::.switch_cpus.data      8982717                       # number of WriteReq accesses(hits+misses)
system.cpu.dcache.WriteReq_accesses::total      8982717                       # number of WriteReq accesses(hits+misses)
system.cpu.dcache.WriteReq_miss_rate::.switch_cpus.data     0.014259                       # miss rate for WriteReq accesses
system.cpu.dcache.WriteReq_miss_rate::total     0.014259                       # miss rate for WriteReq accesses
system.cpu.dcache.WriteReq_avg_miss_latency::.switch_cpus.data 75450.778087                       # average WriteReq miss latency
system.cpu.dcache.WriteReq_avg_miss_latency::total 75450.778087                       # average WriteReq miss latency
system.cpu.dcache.WriteReq_mshr_hits::.switch_cpus.data          107                       # number of WriteReq MSHR hits
system.cpu.dcache.WriteReq_mshr_hits::total          107                       # number of WriteReq MSHR hits
system.cpu.dcache.WriteReq_mshr_misses::.switch_cpus.data       127979                       # number of WriteReq MSHR misses
system.cpu.dcache.WriteReq_mshr_misses::total       127979                       # number of WriteReq MSHR misses
system.cpu.dcache.WriteReq_mshr_miss_latency::.switch_cpus.data   9534846362                       # number of WriteReq MSHR miss cycles
system.cpu.dcache.WriteReq_mshr_miss_latency::total   9534846362                       # number of WriteReq MSHR miss cycles
system.cpu.dcache.WriteReq_mshr_miss_rate::.switch_cpus.data     0.014247                       # mshr miss rate for WriteReq accesses
system.cpu.dcache.WriteReq_mshr_miss_rate::total     0.014247                       # mshr miss rate for WriteReq accesses
system.cpu.dcache.WriteReq_avg_mshr_miss_latency::.switch_cpus.data 74503.210386                       # average WriteReq mshr miss latency
system.cpu.dcache.WriteReq_avg_mshr_miss_latency::total 74503.210386                       # average WriteReq mshr miss latency
system.cpu.dcache.SoftPFReq_hits::.switch_cpus.data        57213                       # number of SoftPFReq hits
system.cpu.dcache.SoftPFReq_hits::total         57213                       # number of SoftPFReq hits
system.cpu.dcache.SoftPFReq_misses::.switch_cpus.data        16395                       # number of SoftPFReq misses
system.cpu.dcache.SoftPFReq_misses::total        16395                       # number of SoftPFReq misses
system.cpu.dcache.SoftPFReq_accesses::.switch_cpus.data        73608                       # number of SoftPFReq accesses(hits+misses)
system.cpu.dcache.SoftPFReq_accesses::total        73608                       # number of SoftPFReq accesses(hits+misses)
system.cpu.dcache.SoftPFReq_miss_rate::.switch_cpus.data     0.222734                       # miss rate for SoftPFReq accesses
system.cpu.dcache.SoftPFReq_miss_rate::total     0.222734                       # miss rate for SoftPFReq accesses
system.cpu.dcache.SoftPFReq_mshr_misses::.switch_cpus.data         5443                       # number of SoftPFReq MSHR misses
system.cpu.dcache.SoftPFReq_mshr_misses::total         5443                       # number of SoftPFReq MSHR misses
system.cpu.dcache.SoftPFReq_mshr_miss_latency::.switch_cpus.data    470412000                       # number of SoftPFReq MSHR miss cycles
system.cpu.dcache.SoftPFReq_mshr_miss_latency::total    470412000                       # number of SoftPFReq MSHR miss cycles
system.cpu.dcache.SoftPFReq_mshr_miss_rate::.switch_cpus.data     0.073946                       # mshr miss rate for SoftPFReq accesses
system.cpu.dcache.SoftPFReq_mshr_miss_rate::total     0.073946                       # mshr miss rate for SoftPFReq accesses
system.cpu.dcache.SoftPFReq_avg_mshr_miss_latency::.switch_cpus.data 86425.133199                       # average SoftPFReq mshr miss latency
system.cpu.dcache.SoftPFReq_avg_mshr_miss_latency::total 86425.133199                       # average SoftPFReq mshr miss latency
system.cpu.dcache.tags.pwrStateResidencyTicks::UNDEFINED 371688773158500                       # Cumulative time (in ticks) in various power states
system.cpu.dcache.tags.tagsinuse             0.076063                       # Cycle average of tags in use
system.cpu.dcache.tags.total_refs            37357923                       # Total number of references to valid blocks.
system.cpu.dcache.tags.sampled_refs            451493                       # Sample count of references to valid blocks.
system.cpu.dcache.tags.avg_refs             82.743084                       # Average number of references to valid blocks.
system.cpu.dcache.tags.warmup_cycle      371661094883500                       # Cycle when the warmup percentage was hit.
system.cpu.dcache.tags.occ_blocks::.cpu.data     0.000004                       # Average occupied blocks per requestor
system.cpu.dcache.tags.occ_blocks::.switch_cpus.data     0.076059                       # Average occupied blocks per requestor
system.cpu.dcache.tags.occ_percent::.cpu.data     0.000000                       # Average percentage of cache occupancy
system.cpu.dcache.tags.occ_percent::.switch_cpus.data     0.000074                       # Average percentage of cache occupancy
system.cpu.dcache.tags.occ_percent::total     0.000074                       # Average percentage of cache occupancy
system.cpu.dcache.tags.occ_task_id_blocks::1024         1024                       # Occupied blocks per task id
system.cpu.dcache.tags.age_task_id_blocks_1024::0          127                       # Occupied blocks per task id
system.cpu.dcache.tags.age_task_id_blocks_1024::1          813                       # Occupied blocks per task id
system.cpu.dcache.tags.age_task_id_blocks_1024::2           79                       # Occupied blocks per task id
system.cpu.dcache.tags.age_task_id_blocks_1024::3            5                       # Occupied blocks per task id
system.cpu.dcache.tags.occ_task_id_percent::1024            1                       # Percentage of cache occupancy per task id
system.cpu.dcache.tags.tag_accesses          75630089                       # Number of tag accesses
system.cpu.dcache.tags.data_accesses         75630089                       # Number of data accesses

---------- End Simulation Statistics   ----------
