
---------- Begin Simulation Statistics ----------
final_tick                               133782803073000                       # Number of ticks from beginning of simulation (restored from checkpoints and never reset)
host_inst_rate                                  56431                       # Simulator instruction rate (inst/s)
host_mem_usage                                 795512                       # Number of bytes of host memory used
host_op_rate                                   100418                       # Simulator op (including micro ops) rate (op/s)
host_seconds                                   177.21                       # Real time elapsed on the host
host_tick_rate                               15775786                       # Simulator tick rate (ticks/s)
sim_freq                                 1000000000000                       # Frequency of simulated ticks
sim_insts                                    10000009                       # Number of instructions simulated
sim_ops                                      17794903                       # Number of ops (including micro ops) simulated
sim_seconds                                  0.002796                       # Number of seconds simulated
sim_ticks                                  2795600500                       # Number of ticks simulated
system.cpu.Branches                                 3                       # Number of branches fetched
system.cpu.committedInsts                           9                       # Number of instructions committed
system.cpu.committedOps                            20                       # Number of ops (including micro ops) committed
system.cpu.dtb.rdAccesses                           1                       # TLB accesses on read requests
system.cpu.dtb.rdMisses                             0                       # TLB misses on read requests
system.cpu.dtb.wrAccesses                           5                       # TLB accesses on write requests
system.cpu.dtb.wrMisses                             0                       # TLB misses on write requests
system.cpu.idle_fraction                            0                       # Percentage of idle cycles
system.cpu.itb.rdAccesses                           0                       # TLB accesses on read requests
system.cpu.itb.rdMisses                             0                       # TLB misses on read requests
system.cpu.itb.wrAccesses                          10                       # TLB accesses on write requests
system.cpu.itb.wrMisses                             0                       # TLB misses on write requests
system.cpu.not_idle_fraction                        1                       # Percentage of non-idle cycles
system.cpu.numCycles                               21                       # number of cpu cycles simulated
system.cpu.numWorkItemsCompleted                    0                       # number of work items this cpu completed
system.cpu.numWorkItemsStarted                      0                       # number of work items this cpu started
system.cpu.num_busy_cycles                         21                       # Number of busy cycles
system.cpu.num_cc_register_reads                    5                       # number of times the CC registers were read
system.cpu.num_conditional_control_insts            1                       # number of instructions that are conditional controls
system.cpu.num_fp_alu_accesses                      1                       # Number of float alu accesses
system.cpu.num_fp_insts                             1                       # number of float instructions
system.cpu.num_fp_register_reads                    1                       # number of times the floating registers were read
system.cpu.num_fp_register_writes                   0                       # number of times the floating registers were written
system.cpu.num_func_calls                           0                       # number of times a function call or return occured
system.cpu.num_idle_cycles                          0                       # Number of idle cycles
system.cpu.num_int_alu_accesses                    20                       # Number of integer alu accesses
system.cpu.num_int_insts                           20                       # number of integer instructions
system.cpu.num_int_register_reads                  40                       # number of times the integer registers were read
system.cpu.num_int_register_writes                 12                       # number of times the integer registers were written
system.cpu.num_load_insts                           1                       # Number of load instructions
system.cpu.num_mem_refs                             6                       # number of memory refs
system.cpu.num_store_insts                          5                       # Number of store instructions
system.cpu.num_vec_alu_accesses                     0                       # Number of vector alu accesses
system.cpu.num_vec_insts                            0                       # number of vector instructions
system.cpu.num_vec_register_reads                   0                       # number of times the vector registers were read
system.cpu.num_vec_register_writes                  0                       # number of times the vector registers were written
system.cpu.op_class::No_OpClass                     0      0.00%      0.00% # Class of executed instruction
system.cpu.op_class::IntAlu                        13     65.00%     65.00% # Class of executed instruction
system.cpu.op_class::IntMult                        0      0.00%     65.00% # Class of executed instruction
system.cpu.op_class::IntDiv                         0      0.00%     65.00% # Class of executed instruction
system.cpu.op_class::FloatAdd                       0      0.00%     65.00% # Class of executed instruction
system.cpu.op_class::FloatCmp                       0      0.00%     65.00% # Class of executed instruction
system.cpu.op_class::FloatCvt                       0      0.00%     65.00% # Class of executed instruction
system.cpu.op_class::FloatMult                      0      0.00%     65.00% # Class of executed instruction
system.cpu.op_class::FloatMultAcc                   0      0.00%     65.00% # Class of executed instruction
system.cpu.op_class::FloatDiv                       0      0.00%     65.00% # Class of executed instruction
system.cpu.op_class::FloatMisc                      0      0.00%     65.00% # Class of executed instruction
system.cpu.op_class::FloatSqrt                      0      0.00%     65.00% # Class of executed instruction
system.cpu.op_class::SimdAdd                        0      0.00%     65.00% # Class of executed instruction
system.cpu.op_class::SimdAddAcc                     0      0.00%     65.00% # Class of executed instruction
system.cpu.op_class::SimdAlu                        0      0.00%     65.00% # Class of executed instruction
system.cpu.op_class::SimdCmp                        0      0.00%     65.00% # Class of executed instruction
system.cpu.op_class::SimdCvt                        0      0.00%     65.00% # Class of executed instruction
system.cpu.op_class::SimdMisc                       1      5.00%     70.00% # Class of executed instruction
system.cpu.op_class::SimdMult                       0      0.00%     70.00% # Class of executed instruction
system.cpu.op_class::SimdMultAcc                    0      0.00%     70.00% # Class of executed instruction
system.cpu.op_class::SimdShift                      0      0.00%     70.00% # Class of executed instruction
system.cpu.op_class::SimdShiftAcc                   0      0.00%     70.00% # Class of executed instruction
system.cpu.op_class::SimdDiv                        0      0.00%     70.00% # Class of executed instruction
system.cpu.op_class::SimdSqrt                       0      0.00%     70.00% # Class of executed instruction
system.cpu.op_class::SimdFloatAdd                   0      0.00%     70.00% # Class of executed instruction
system.cpu.op_class::SimdFloatAlu                   0      0.00%     70.00% # Class of executed instruction
system.cpu.op_class::SimdFloatCmp                   0      0.00%     70.00% # Class of executed instruction
system.cpu.op_class::SimdFloatCvt                   0      0.00%     70.00% # Class of executed instruction
system.cpu.op_class::SimdFloatDiv                   0      0.00%     70.00% # Class of executed instruction
system.cpu.op_class::SimdFloatMisc                  0      0.00%     70.00% # Class of executed instruction
system.cpu.op_class::SimdFloatMult                  0      0.00%     70.00% # Class of executed instruction
system.cpu.op_class::SimdFloatMultAcc               0      0.00%     70.00% # Class of executed instruction
system.cpu.op_class::SimdFloatSqrt                  0      0.00%     70.00% # Class of executed instruction
system.cpu.op_class::SimdReduceAdd                  0      0.00%     70.00% # Class of executed instruction
system.cpu.op_class::SimdReduceAlu                  0      0.00%     70.00% # Class of executed instruction
system.cpu.op_class::SimdReduceCmp                  0      0.00%     70.00% # Class of executed instruction
system.cpu.op_class::SimdFloatReduceAdd             0      0.00%     70.00% # Class of executed instruction
system.cpu.op_class::SimdFloatReduceCmp             0      0.00%     70.00% # Class of executed instruction
system.cpu.op_class::SimdAes                        0      0.00%     70.00% # Class of executed instruction
system.cpu.op_class::SimdAesMix                     0      0.00%     70.00% # Class of executed instruction
system.cpu.op_class::SimdSha1Hash                   0      0.00%     70.00% # Class of executed instruction
system.cpu.op_class::SimdSha1Hash2                  0      0.00%     70.00% # Class of executed instruction
system.cpu.op_class::SimdSha256Hash                 0      0.00%     70.00% # Class of executed instruction
system.cpu.op_class::SimdSha256Hash2                0      0.00%     70.00% # Class of executed instruction
system.cpu.op_class::SimdShaSigma2                  0      0.00%     70.00% # Class of executed instruction
system.cpu.op_class::SimdShaSigma3                  0      0.00%     70.00% # Class of executed instruction
system.cpu.op_class::SimdPredAlu                    0      0.00%     70.00% # Class of executed instruction
system.cpu.op_class::MemRead                        1      5.00%     75.00% # Class of executed instruction
system.cpu.op_class::MemWrite                       5     25.00%    100.00% # Class of executed instruction
system.cpu.op_class::FloatMemRead                   0      0.00%    100.00% # Class of executed instruction
system.cpu.op_class::FloatMemWrite                  0      0.00%    100.00% # Class of executed instruction
system.cpu.op_class::IprAccess                      0      0.00%    100.00% # Class of executed instruction
system.cpu.op_class::InstPrefetch                   0      0.00%    100.00% # Class of executed instruction
system.cpu.op_class::total                         20                       # Class of executed instruction
system.cpu.workload.numSyscalls                     0                       # Number of system calls
system.membus.snoop_filter.hit_multi_requests            0                       # Number of requests hitting in the snoop filter with multiple (>1) holders of the requested data.
system.membus.snoop_filter.hit_multi_snoops            0                       # Number of snoops hitting in the snoop filter with multiple (>1) holders of the requested data.
system.membus.snoop_filter.hit_single_requests         1969                       # Number of requests hitting in the snoop filter with a single holder of the requested data.
system.membus.snoop_filter.hit_single_snoops            0                       # Number of snoops hitting in the snoop filter with a single holder of the requested data.
system.membus.snoop_filter.tot_requests          6242                       # Total number of requests made to the snoop filter.
system.membus.snoop_filter.tot_snoops               0                       # Total number of snoops made to the snoop filter.
system.switch_cpus.branchPred.BTBCorrect            0                       # Number of correct BTB predictions (this stat may not work properly.
system.switch_cpus.branchPred.BTBHitPct      0.000000                       # BTB Hit Percentage
system.switch_cpus.branchPred.BTBHits               0                       # Number of BTB hits
system.switch_cpus.branchPred.BTBLookups       625246                       # Number of BTB lookups
system.switch_cpus.branchPred.RASInCorrect            1                       # Number of incorrect RAS predictions.
system.switch_cpus.branchPred.condIncorrect        30871                       # Number of conditional branches incorrect
system.switch_cpus.branchPred.condPredicted       876587                       # Number of conditional branches predicted
system.switch_cpus.branchPred.indirectHits       488961                       # Number of indirect target hits.
system.switch_cpus.branchPred.indirectLookups       625246                       # Number of indirect predictor lookups.
system.switch_cpus.branchPred.indirectMisses       136285                       # Number of indirect misses.
system.switch_cpus.branchPred.lookups          993969                       # Number of BP lookups
system.switch_cpus.branchPred.usedRAS           58237                       # Number of times the RAS was used to get a target.
system.switch_cpus.branchPredindirectMispredicted          253                       # Number of mispredicted indirect branches.
system.switch_cpus.cc_regfile_reads           4663317                       # number of cc regfile reads
system.switch_cpus.cc_regfile_writes          3460345                       # number of cc regfile writes
system.switch_cpus.commit.amos                      0                       # Number of atomic instructions committed
system.switch_cpus.commit.branchMispredicts        30873                       # The number of times a branch was mispredicted
system.switch_cpus.commit.branches             915063                       # Number of branches committed
system.switch_cpus.commit.bw_lim_events       1504506                       # number cycles where commit BW limit reached
system.switch_cpus.commit.commitSquashedInsts      2960893                       # The number of squashed insts skipped by commit
system.switch_cpus.commit.committedInsts     10000000                       # Number of instructions committed
system.switch_cpus.commit.committedOps       17794883                       # Number of ops (including micro ops) committed
system.switch_cpus.commit.committed_per_cycle::samples      5205703                       # Number of insts commited each cycle
system.switch_cpus.commit.committed_per_cycle::mean     3.418344                       # Number of insts commited each cycle
system.switch_cpus.commit.committed_per_cycle::stdev     3.296626                       # Number of insts commited each cycle
system.switch_cpus.commit.committed_per_cycle::underflows            0      0.00%      0.00% # Number of insts commited each cycle
system.switch_cpus.commit.committed_per_cycle::0      1352499     25.98%     25.98% # Number of insts commited each cycle
system.switch_cpus.commit.committed_per_cycle::1      1127034     21.65%     47.63% # Number of insts commited each cycle
system.switch_cpus.commit.committed_per_cycle::2       247867      4.76%     52.39% # Number of insts commited each cycle
system.switch_cpus.commit.committed_per_cycle::3       322199      6.19%     58.58% # Number of insts commited each cycle
system.switch_cpus.commit.committed_per_cycle::4       318387      6.12%     64.70% # Number of insts commited each cycle
system.switch_cpus.commit.committed_per_cycle::5       175132      3.36%     68.06% # Number of insts commited each cycle
system.switch_cpus.commit.committed_per_cycle::6        86291      1.66%     69.72% # Number of insts commited each cycle
system.switch_cpus.commit.committed_per_cycle::7        71788      1.38%     71.10% # Number of insts commited each cycle
system.switch_cpus.commit.committed_per_cycle::8      1504506     28.90%    100.00% # Number of insts commited each cycle
system.switch_cpus.commit.committed_per_cycle::overflows            0      0.00%    100.00% # Number of insts commited each cycle
system.switch_cpus.commit.committed_per_cycle::min_value            0                       # Number of insts commited each cycle
system.switch_cpus.commit.committed_per_cycle::max_value            8                       # Number of insts commited each cycle
system.switch_cpus.commit.committed_per_cycle::total      5205703                       # Number of insts commited each cycle
system.switch_cpus.commit.fp_insts            8792734                       # Number of committed floating point instructions.
system.switch_cpus.commit.function_calls        56948                       # Number of function calls committed.
system.switch_cpus.commit.int_insts          10970465                       # Number of committed integer instructions.
system.switch_cpus.commit.loads               2258934                       # Number of loads committed
system.switch_cpus.commit.membars                   0                       # Number of memory barriers committed
system.switch_cpus.commit.op_class_0::No_OpClass         1643      0.01%      0.01% # Class of committed instruction
system.switch_cpus.commit.op_class_0::IntAlu      9447535     53.09%     53.10% # Class of committed instruction
system.switch_cpus.commit.op_class_0::IntMult            0      0.00%     53.10% # Class of committed instruction
system.switch_cpus.commit.op_class_0::IntDiv            0      0.00%     53.10% # Class of committed instruction
system.switch_cpus.commit.op_class_0::FloatAdd       796801      4.48%     57.58% # Class of committed instruction
system.switch_cpus.commit.op_class_0::FloatCmp            0      0.00%     57.58% # Class of committed instruction
system.switch_cpus.commit.op_class_0::FloatCvt            0      0.00%     57.58% # Class of committed instruction
system.switch_cpus.commit.op_class_0::FloatMult            0      0.00%     57.58% # Class of committed instruction
system.switch_cpus.commit.op_class_0::FloatMultAcc            0      0.00%     57.58% # Class of committed instruction
system.switch_cpus.commit.op_class_0::FloatDiv            0      0.00%     57.58% # Class of committed instruction
system.switch_cpus.commit.op_class_0::FloatMisc            0      0.00%     57.58% # Class of committed instruction
system.switch_cpus.commit.op_class_0::FloatSqrt            0      0.00%     57.58% # Class of committed instruction
system.switch_cpus.commit.op_class_0::SimdAdd            0      0.00%     57.58% # Class of committed instruction
system.switch_cpus.commit.op_class_0::SimdAddAcc            0      0.00%     57.58% # Class of committed instruction
system.switch_cpus.commit.op_class_0::SimdAlu      1377836      7.74%     65.32% # Class of committed instruction
system.switch_cpus.commit.op_class_0::SimdCmp            0      0.00%     65.32% # Class of committed instruction
system.switch_cpus.commit.op_class_0::SimdCvt            0      0.00%     65.32% # Class of committed instruction
system.switch_cpus.commit.op_class_0::SimdMisc       399696      2.25%     67.57% # Class of committed instruction
system.switch_cpus.commit.op_class_0::SimdMult            0      0.00%     67.57% # Class of committed instruction
system.switch_cpus.commit.op_class_0::SimdMultAcc            0      0.00%     67.57% # Class of committed instruction
system.switch_cpus.commit.op_class_0::SimdShift            0      0.00%     67.57% # Class of committed instruction
system.switch_cpus.commit.op_class_0::SimdShiftAcc            0      0.00%     67.57% # Class of committed instruction
system.switch_cpus.commit.op_class_0::SimdDiv            0      0.00%     67.57% # Class of committed instruction
system.switch_cpus.commit.op_class_0::SimdSqrt            0      0.00%     67.57% # Class of committed instruction
system.switch_cpus.commit.op_class_0::SimdFloatAdd      1425744      8.01%     75.58% # Class of committed instruction
system.switch_cpus.commit.op_class_0::SimdFloatAlu            0      0.00%     75.58% # Class of committed instruction
system.switch_cpus.commit.op_class_0::SimdFloatCmp            0      0.00%     75.58% # Class of committed instruction
system.switch_cpus.commit.op_class_0::SimdFloatCvt       685988      3.85%     79.43% # Class of committed instruction
system.switch_cpus.commit.op_class_0::SimdFloatDiv        56948      0.32%     79.75% # Class of committed instruction
system.switch_cpus.commit.op_class_0::SimdFloatMisc            0      0.00%     79.75% # Class of committed instruction
system.switch_cpus.commit.op_class_0::SimdFloatMult       658816      3.70%     83.46% # Class of committed instruction
system.switch_cpus.commit.op_class_0::SimdFloatMultAcc            0      0.00%     83.46% # Class of committed instruction
system.switch_cpus.commit.op_class_0::SimdFloatSqrt            0      0.00%     83.46% # Class of committed instruction
system.switch_cpus.commit.op_class_0::SimdReduceAdd            0      0.00%     83.46% # Class of committed instruction
system.switch_cpus.commit.op_class_0::SimdReduceAlu            0      0.00%     83.46% # Class of committed instruction
system.switch_cpus.commit.op_class_0::SimdReduceCmp            0      0.00%     83.46% # Class of committed instruction
system.switch_cpus.commit.op_class_0::SimdFloatReduceAdd            0      0.00%     83.46% # Class of committed instruction
system.switch_cpus.commit.op_class_0::SimdFloatReduceCmp            0      0.00%     83.46% # Class of committed instruction
system.switch_cpus.commit.op_class_0::SimdAes            0      0.00%     83.46% # Class of committed instruction
system.switch_cpus.commit.op_class_0::SimdAesMix            0      0.00%     83.46% # Class of committed instruction
system.switch_cpus.commit.op_class_0::SimdSha1Hash            0      0.00%     83.46% # Class of committed instruction
system.switch_cpus.commit.op_class_0::SimdSha1Hash2            0      0.00%     83.46% # Class of committed instruction
system.switch_cpus.commit.op_class_0::SimdSha256Hash            0      0.00%     83.46% # Class of committed instruction
system.switch_cpus.commit.op_class_0::SimdSha256Hash2            0      0.00%     83.46% # Class of committed instruction
system.switch_cpus.commit.op_class_0::SimdShaSigma2            0      0.00%     83.46% # Class of committed instruction
system.switch_cpus.commit.op_class_0::SimdShaSigma3            0      0.00%     83.46% # Class of committed instruction
system.switch_cpus.commit.op_class_0::SimdPredAlu            0      0.00%     83.46% # Class of committed instruction
system.switch_cpus.commit.op_class_0::MemRead       860976      4.84%     88.29% # Class of committed instruction
system.switch_cpus.commit.op_class_0::MemWrite       512637      2.88%     91.18% # Class of committed instruction
system.switch_cpus.commit.op_class_0::FloatMemRead      1397958      7.86%     99.03% # Class of committed instruction
system.switch_cpus.commit.op_class_0::FloatMemWrite       172305      0.97%    100.00% # Class of committed instruction
system.switch_cpus.commit.op_class_0::IprAccess            0      0.00%    100.00% # Class of committed instruction
system.switch_cpus.commit.op_class_0::InstPrefetch            0      0.00%    100.00% # Class of committed instruction
system.switch_cpus.commit.op_class_0::total     17794883                       # Class of committed instruction
system.switch_cpus.commit.refs                2943876                       # Number of memory references committed
system.switch_cpus.commit.swp_count                 0                       # Number of s/w prefetches committed
system.switch_cpus.commit.vec_insts                 0                       # Number of committed Vector instructions.
system.switch_cpus.committedInsts            10000000                       # Number of Instructions Simulated
system.switch_cpus.committedOps              17794883                       # Number of Ops (including micro ops) Simulated
system.switch_cpus.cpi                       0.559118                       # CPI: Cycles Per Instruction
system.switch_cpus.cpi_total                 0.559118                       # CPI: Total CPI of All Threads
system.switch_cpus.decode.BlockedCycles       1340474                       # Number of cycles decode is blocked
system.switch_cpus.decode.DecodedInsts       21040898                       # Number of instructions handled by decode
system.switch_cpus.decode.IdleCycles          1119491                       # Number of cycles decode is idle
system.switch_cpus.decode.RunCycles           2780624                       # Number of cycles decode is running
system.switch_cpus.decode.SquashCycles          30881                       # Number of cycles decode is squashing
system.switch_cpus.decode.UnblockCycles        315791                       # Number of cycles decode is unblocking
system.switch_cpus.dtb.rdAccesses             2481945                       # TLB accesses on read requests
system.switch_cpus.dtb.rdMisses                    75                       # TLB misses on read requests
system.switch_cpus.dtb.wrAccesses              689477                       # TLB accesses on write requests
system.switch_cpus.dtb.wrMisses                     3                       # TLB misses on write requests
system.switch_cpus.fetch.Branches              993969                       # Number of branches that fetch encountered
system.switch_cpus.fetch.CacheLines           1391923                       # Number of cache lines fetched
system.switch_cpus.fetch.Cycles               4141495                       # Number of cycles fetch has run and was not squashing or blocked
system.switch_cpus.fetch.IcacheSquashes          9417                       # Number of outstanding Icache misses that were squashed
system.switch_cpus.fetch.Insts               12043676                       # Number of instructions fetch has processed
system.switch_cpus.fetch.MiscStallCycles            1                       # Number of cycles fetch has spent waiting on interrupts, or bad addresses, or out of MSHRs
system.switch_cpus.fetch.PendingTrapStallCycles           13                       # Number of stall cycles due to pending traps
system.switch_cpus.fetch.SquashCycles           61762                       # Number of cycles fetch has spent squashing
system.switch_cpus.fetch.branchRate          0.177774                       # Number of branch fetches per cycle
system.switch_cpus.fetch.icacheStallCycles      1414882                       # Number of cycles fetch is stalled on an Icache miss
system.switch_cpus.fetch.predictedBranches       547198                       # Number of branches that fetch has predicted taken
system.switch_cpus.fetch.rate                2.154049                       # Number of inst fetches per cycle
system.switch_cpus.fetch.rateDist::samples      5587272                       # Number of instructions fetched each cycle (Total)
system.switch_cpus.fetch.rateDist::mean      3.816778                       # Number of instructions fetched each cycle (Total)
system.switch_cpus.fetch.rateDist::stdev     3.607296                       # Number of instructions fetched each cycle (Total)
system.switch_cpus.fetch.rateDist::underflows            0      0.00%      0.00% # Number of instructions fetched each cycle (Total)
system.switch_cpus.fetch.rateDist::0          2252748     40.32%     40.32% # Number of instructions fetched each cycle (Total)
system.switch_cpus.fetch.rateDist::1           201886      3.61%     43.93% # Number of instructions fetched each cycle (Total)
system.switch_cpus.fetch.rateDist::2             8016      0.14%     44.08% # Number of instructions fetched each cycle (Total)
system.switch_cpus.fetch.rateDist::3           388076      6.95%     51.02% # Number of instructions fetched each cycle (Total)
system.switch_cpus.fetch.rateDist::4           298908      5.35%     56.37% # Number of instructions fetched each cycle (Total)
system.switch_cpus.fetch.rateDist::5           130329      2.33%     58.70% # Number of instructions fetched each cycle (Total)
system.switch_cpus.fetch.rateDist::6            50848      0.91%     59.61% # Number of instructions fetched each cycle (Total)
system.switch_cpus.fetch.rateDist::7           260823      4.67%     64.28% # Number of instructions fetched each cycle (Total)
system.switch_cpus.fetch.rateDist::8          1995638     35.72%    100.00% # Number of instructions fetched each cycle (Total)
system.switch_cpus.fetch.rateDist::overflows            0      0.00%    100.00% # Number of instructions fetched each cycle (Total)
system.switch_cpus.fetch.rateDist::min_value            0                       # Number of instructions fetched each cycle (Total)
system.switch_cpus.fetch.rateDist::max_value            8                       # Number of instructions fetched each cycle (Total)
system.switch_cpus.fetch.rateDist::total      5587272                       # Number of instructions fetched each cycle (Total)
system.switch_cpus.fp_regfile_reads          15787842                       # number of floating regfile reads
system.switch_cpus.fp_regfile_writes          8940840                       # number of floating regfile writes
system.switch_cpus.idleCycles                    3908                       # Total number of cycles that the CPU has spent unscheduled due to idling
system.switch_cpus.iew.branchMispredicts        30993                       # Number of branch mispredicts detected at execute
system.switch_cpus.iew.exec_branches           919617                       # Number of branches executed
system.switch_cpus.iew.exec_nop                     0                       # number of nop insts executed
system.switch_cpus.iew.exec_rate             3.438228                       # Inst execution rate
system.switch_cpus.iew.exec_refs              3164313                       # number of memory reference insts executed
system.switch_cpus.iew.exec_stores             689477                       # Number of stores executed
system.switch_cpus.iew.exec_swp                     0                       # number of swp insts executed
system.switch_cpus.iew.iewBlockCycles          896920                       # Number of cycles IEW is blocking
system.switch_cpus.iew.iewDispLoadInsts       2650151                       # Number of dispatched load instructions
system.switch_cpus.iew.iewDispNonSpecInsts            0                       # Number of dispatched non-speculative instructions
system.switch_cpus.iew.iewDispSquashedInsts            5                       # Number of squashed instructions skipped by dispatch
system.switch_cpus.iew.iewDispStoreInsts       692182                       # Number of dispatched store instructions
system.switch_cpus.iew.iewDispatchedInsts     20755876                       # Number of instructions dispatched to IQ
system.switch_cpus.iew.iewExecLoadInsts       2474836                       # Number of load instructions executed
system.switch_cpus.iew.iewExecSquashedInsts        38875                       # Number of squashed instructions skipped in execute
system.switch_cpus.iew.iewExecutedInsts      19223752                       # Number of executed instructions
system.switch_cpus.iew.iewIQFullEvents           4659                       # Number of times the IQ has become full, causing a stall
system.switch_cpus.iew.iewIdleCycles                0                       # Number of cycles IEW is idle
system.switch_cpus.iew.iewLSQFullEvents             0                       # Number of times the LSQ has become full, causing a stall
system.switch_cpus.iew.iewSquashCycles          30881                       # Number of cycles IEW is squashing
system.switch_cpus.iew.iewUnblockCycles          5752                       # Number of cycles IEW is unblocking
system.switch_cpus.iew.lsq.thread0.blockedLoads            0                       # Number of blocked loads due to partial load-store forwarding
system.switch_cpus.iew.lsq.thread0.cacheBlocked            4                       # Number of times an access to memory failed due to the cache being blocked
system.switch_cpus.iew.lsq.thread0.forwLoads        59105                       # Number of loads that had data forwarded from stores
system.switch_cpus.iew.lsq.thread0.ignoredResponses            5                       # Number of memory responses ignored because the instruction is squashed
system.switch_cpus.iew.lsq.thread0.invAddrLoads            0                       # Number of loads ignored due to an invalid address
system.switch_cpus.iew.lsq.thread0.invAddrSwpfs            0                       # Number of software prefetches ignored due to an invalid address
system.switch_cpus.iew.lsq.thread0.memOrderViolation            9                       # Number of memory ordering violations
system.switch_cpus.iew.lsq.thread0.rescheduledLoads            0                       # Number of loads that were rescheduled
system.switch_cpus.iew.lsq.thread0.squashedLoads       391207                       # Number of loads squashed
system.switch_cpus.iew.lsq.thread0.squashedStores         7240                       # Number of stores squashed
system.switch_cpus.iew.memOrderViolationEvents            9                       # Number of memory order violations
system.switch_cpus.iew.predictedNotTakenIncorrect        15902                       # Number of branches that were predicted not taken incorrectly
system.switch_cpus.iew.predictedTakenIncorrect        15091                       # Number of branches that were predicted taken incorrectly
system.switch_cpus.iew.wb_consumers          24861771                       # num instructions consuming a value
system.switch_cpus.iew.wb_count              19205235                       # cumulative count of insts written-back
system.switch_cpus.iew.wb_fanout             0.593786                       # average fanout of values written-back
system.switch_cpus.iew.wb_producers          14762562                       # num instructions producing a value
system.switch_cpus.iew.wb_rate               3.434916                       # insts written-back per cycle
system.switch_cpus.iew.wb_sent               19215538                       # cumulative count of insts sent to commit
system.switch_cpus.int_regfile_reads         16502327                       # number of integer regfile reads
system.switch_cpus.int_regfile_writes         8321597                       # number of integer regfile writes
system.switch_cpus.ipc                       1.788531                       # IPC: Instructions Per Cycle
system.switch_cpus.ipc_total                 1.788531                       # IPC: Total IPC of All Threads
system.switch_cpus.iq.FU_type_0::No_OpClass         2015      0.01%      0.01% # Type of FU issued
system.switch_cpus.iq.FU_type_0::IntAlu      10124748     52.56%     52.57% # Type of FU issued
system.switch_cpus.iq.FU_type_0::IntMult            0      0.00%     52.57% # Type of FU issued
system.switch_cpus.iq.FU_type_0::IntDiv             0      0.00%     52.57% # Type of FU issued
system.switch_cpus.iq.FU_type_0::FloatAdd      1018732      5.29%     57.86% # Type of FU issued
system.switch_cpus.iq.FU_type_0::FloatCmp            0      0.00%     57.86% # Type of FU issued
system.switch_cpus.iq.FU_type_0::FloatCvt            0      0.00%     57.86% # Type of FU issued
system.switch_cpus.iq.FU_type_0::FloatMult            0      0.00%     57.86% # Type of FU issued
system.switch_cpus.iq.FU_type_0::FloatMultAcc            0      0.00%     57.86% # Type of FU issued
system.switch_cpus.iq.FU_type_0::FloatDiv            0      0.00%     57.86% # Type of FU issued
system.switch_cpus.iq.FU_type_0::FloatMisc            0      0.00%     57.86% # Type of FU issued
system.switch_cpus.iq.FU_type_0::FloatSqrt            0      0.00%     57.86% # Type of FU issued
system.switch_cpus.iq.FU_type_0::SimdAdd            0      0.00%     57.86% # Type of FU issued
system.switch_cpus.iq.FU_type_0::SimdAddAcc            0      0.00%     57.86% # Type of FU issued
system.switch_cpus.iq.FU_type_0::SimdAlu      1562220      8.11%     65.97% # Type of FU issued
system.switch_cpus.iq.FU_type_0::SimdCmp            0      0.00%     65.97% # Type of FU issued
system.switch_cpus.iq.FU_type_0::SimdCvt            0      0.00%     65.97% # Type of FU issued
system.switch_cpus.iq.FU_type_0::SimdMisc       454824      2.36%     68.33% # Type of FU issued
system.switch_cpus.iq.FU_type_0::SimdMult            0      0.00%     68.33% # Type of FU issued
system.switch_cpus.iq.FU_type_0::SimdMultAcc            0      0.00%     68.33% # Type of FU issued
system.switch_cpus.iq.FU_type_0::SimdShift            0      0.00%     68.33% # Type of FU issued
system.switch_cpus.iq.FU_type_0::SimdShiftAcc            0      0.00%     68.33% # Type of FU issued
system.switch_cpus.iq.FU_type_0::SimdDiv            0      0.00%     68.33% # Type of FU issued
system.switch_cpus.iq.FU_type_0::SimdSqrt            0      0.00%     68.33% # Type of FU issued
system.switch_cpus.iq.FU_type_0::SimdFloatAdd      1459804      7.58%     75.91% # Type of FU issued
system.switch_cpus.iq.FU_type_0::SimdFloatAlu            0      0.00%     75.91% # Type of FU issued
system.switch_cpus.iq.FU_type_0::SimdFloatCmp            0      0.00%     75.91% # Type of FU issued
system.switch_cpus.iq.FU_type_0::SimdFloatCvt       713912      3.71%     79.62% # Type of FU issued
system.switch_cpus.iq.FU_type_0::SimdFloatDiv        56948      0.30%     79.91% # Type of FU issued
system.switch_cpus.iq.FU_type_0::SimdFloatMisc            0      0.00%     79.91% # Type of FU issued
system.switch_cpus.iq.FU_type_0::SimdFloatMult       702651      3.65%     83.56% # Type of FU issued
system.switch_cpus.iq.FU_type_0::SimdFloatMultAcc            0      0.00%     83.56% # Type of FU issued
system.switch_cpus.iq.FU_type_0::SimdFloatSqrt            0      0.00%     83.56% # Type of FU issued
system.switch_cpus.iq.FU_type_0::SimdReduceAdd            0      0.00%     83.56% # Type of FU issued
system.switch_cpus.iq.FU_type_0::SimdReduceAlu            0      0.00%     83.56% # Type of FU issued
system.switch_cpus.iq.FU_type_0::SimdReduceCmp            0      0.00%     83.56% # Type of FU issued
system.switch_cpus.iq.FU_type_0::SimdFloatReduceAdd            0      0.00%     83.56% # Type of FU issued
system.switch_cpus.iq.FU_type_0::SimdFloatReduceCmp            0      0.00%     83.56% # Type of FU issued
system.switch_cpus.iq.FU_type_0::SimdAes            0      0.00%     83.56% # Type of FU issued
system.switch_cpus.iq.FU_type_0::SimdAesMix            0      0.00%     83.56% # Type of FU issued
system.switch_cpus.iq.FU_type_0::SimdSha1Hash            0      0.00%     83.56% # Type of FU issued
system.switch_cpus.iq.FU_type_0::SimdSha1Hash2            0      0.00%     83.56% # Type of FU issued
system.switch_cpus.iq.FU_type_0::SimdSha256Hash            0      0.00%     83.56% # Type of FU issued
system.switch_cpus.iq.FU_type_0::SimdSha256Hash2            0      0.00%     83.56% # Type of FU issued
system.switch_cpus.iq.FU_type_0::SimdShaSigma2            0      0.00%     83.56% # Type of FU issued
system.switch_cpus.iq.FU_type_0::SimdShaSigma3            0      0.00%     83.56% # Type of FU issued
system.switch_cpus.iq.FU_type_0::SimdPredAlu            0      0.00%     83.56% # Type of FU issued
system.switch_cpus.iq.FU_type_0::MemRead       868801      4.51%     88.07% # Type of FU issued
system.switch_cpus.iq.FU_type_0::MemWrite       516267      2.68%     90.75% # Type of FU issued
system.switch_cpus.iq.FU_type_0::FloatMemRead      1607943      8.35%     99.10% # Type of FU issued
system.switch_cpus.iq.FU_type_0::FloatMemWrite       173766      0.90%    100.00% # Type of FU issued
system.switch_cpus.iq.FU_type_0::IprAccess            0      0.00%    100.00% # Type of FU issued
system.switch_cpus.iq.FU_type_0::InstPrefetch            0      0.00%    100.00% # Type of FU issued
system.switch_cpus.iq.FU_type_0::total       19262631                       # Type of FU issued
system.switch_cpus.iq.fp_alu_accesses         9746655                       # Number of floating point alu accesses
system.switch_cpus.iq.fp_inst_queue_reads     19490892                       # Number of floating instruction queue reads
system.switch_cpus.iq.fp_inst_queue_wakeup_accesses      9702643                       # Number of floating instruction queue wakeup accesses
system.switch_cpus.iq.fp_inst_queue_writes     12800851                       # Number of floating instruction queue writes
system.switch_cpus.iq.fu_busy_cnt                3845                       # FU busy when requested
system.switch_cpus.iq.fu_busy_rate           0.000200                       # FU busy rate (busy events/executed inst)
system.switch_cpus.iq.fu_full::No_OpClass            0      0.00%      0.00% # attempts to use FU when none available
system.switch_cpus.iq.fu_full::IntAlu            1173     30.51%     30.51% # attempts to use FU when none available
system.switch_cpus.iq.fu_full::IntMult              0      0.00%     30.51% # attempts to use FU when none available
system.switch_cpus.iq.fu_full::IntDiv               0      0.00%     30.51% # attempts to use FU when none available
system.switch_cpus.iq.fu_full::FloatAdd             0      0.00%     30.51% # attempts to use FU when none available
system.switch_cpus.iq.fu_full::FloatCmp             0      0.00%     30.51% # attempts to use FU when none available
system.switch_cpus.iq.fu_full::FloatCvt             0      0.00%     30.51% # attempts to use FU when none available
system.switch_cpus.iq.fu_full::FloatMult            0      0.00%     30.51% # attempts to use FU when none available
system.switch_cpus.iq.fu_full::FloatMultAcc            0      0.00%     30.51% # attempts to use FU when none available
system.switch_cpus.iq.fu_full::FloatDiv             0      0.00%     30.51% # attempts to use FU when none available
system.switch_cpus.iq.fu_full::FloatMisc            0      0.00%     30.51% # attempts to use FU when none available
system.switch_cpus.iq.fu_full::FloatSqrt            0      0.00%     30.51% # attempts to use FU when none available
system.switch_cpus.iq.fu_full::SimdAdd              0      0.00%     30.51% # attempts to use FU when none available
system.switch_cpus.iq.fu_full::SimdAddAcc            0      0.00%     30.51% # attempts to use FU when none available
system.switch_cpus.iq.fu_full::SimdAlu            967     25.15%     55.66% # attempts to use FU when none available
system.switch_cpus.iq.fu_full::SimdCmp              0      0.00%     55.66% # attempts to use FU when none available
system.switch_cpus.iq.fu_full::SimdCvt              0      0.00%     55.66% # attempts to use FU when none available
system.switch_cpus.iq.fu_full::SimdMisc          1450     37.71%     93.37% # attempts to use FU when none available
system.switch_cpus.iq.fu_full::SimdMult             0      0.00%     93.37% # attempts to use FU when none available
system.switch_cpus.iq.fu_full::SimdMultAcc            0      0.00%     93.37% # attempts to use FU when none available
system.switch_cpus.iq.fu_full::SimdShift            0      0.00%     93.37% # attempts to use FU when none available
system.switch_cpus.iq.fu_full::SimdShiftAcc            0      0.00%     93.37% # attempts to use FU when none available
system.switch_cpus.iq.fu_full::SimdDiv              0      0.00%     93.37% # attempts to use FU when none available
system.switch_cpus.iq.fu_full::SimdSqrt             0      0.00%     93.37% # attempts to use FU when none available
system.switch_cpus.iq.fu_full::SimdFloatAdd           19      0.49%     93.86% # attempts to use FU when none available
system.switch_cpus.iq.fu_full::SimdFloatAlu            0      0.00%     93.86% # attempts to use FU when none available
system.switch_cpus.iq.fu_full::SimdFloatCmp            0      0.00%     93.86% # attempts to use FU when none available
system.switch_cpus.iq.fu_full::SimdFloatCvt            0      0.00%     93.86% # attempts to use FU when none available
system.switch_cpus.iq.fu_full::SimdFloatDiv            0      0.00%     93.86% # attempts to use FU when none available
system.switch_cpus.iq.fu_full::SimdFloatMisc            0      0.00%     93.86% # attempts to use FU when none available
system.switch_cpus.iq.fu_full::SimdFloatMult          235      6.11%     99.97% # attempts to use FU when none available
system.switch_cpus.iq.fu_full::SimdFloatMultAcc            0      0.00%     99.97% # attempts to use FU when none available
system.switch_cpus.iq.fu_full::SimdFloatSqrt            0      0.00%     99.97% # attempts to use FU when none available
system.switch_cpus.iq.fu_full::SimdReduceAdd            0      0.00%     99.97% # attempts to use FU when none available
system.switch_cpus.iq.fu_full::SimdReduceAlu            0      0.00%     99.97% # attempts to use FU when none available
system.switch_cpus.iq.fu_full::SimdReduceCmp            0      0.00%     99.97% # attempts to use FU when none available
system.switch_cpus.iq.fu_full::SimdFloatReduceAdd            0      0.00%     99.97% # attempts to use FU when none available
system.switch_cpus.iq.fu_full::SimdFloatReduceCmp            0      0.00%     99.97% # attempts to use FU when none available
system.switch_cpus.iq.fu_full::SimdAes              0      0.00%     99.97% # attempts to use FU when none available
system.switch_cpus.iq.fu_full::SimdAesMix            0      0.00%     99.97% # attempts to use FU when none available
system.switch_cpus.iq.fu_full::SimdSha1Hash            0      0.00%     99.97% # attempts to use FU when none available
system.switch_cpus.iq.fu_full::SimdSha1Hash2            0      0.00%     99.97% # attempts to use FU when none available
system.switch_cpus.iq.fu_full::SimdSha256Hash            0      0.00%     99.97% # attempts to use FU when none available
system.switch_cpus.iq.fu_full::SimdSha256Hash2            0      0.00%     99.97% # attempts to use FU when none available
system.switch_cpus.iq.fu_full::SimdShaSigma2            0      0.00%     99.97% # attempts to use FU when none available
system.switch_cpus.iq.fu_full::SimdShaSigma3            0      0.00%     99.97% # attempts to use FU when none available
system.switch_cpus.iq.fu_full::SimdPredAlu            0      0.00%     99.97% # attempts to use FU when none available
system.switch_cpus.iq.fu_full::MemRead              0      0.00%     99.97% # attempts to use FU when none available
system.switch_cpus.iq.fu_full::MemWrite             0      0.00%     99.97% # attempts to use FU when none available
system.switch_cpus.iq.fu_full::FloatMemRead            1      0.03%    100.00% # attempts to use FU when none available
system.switch_cpus.iq.fu_full::FloatMemWrite            0      0.00%    100.00% # attempts to use FU when none available
system.switch_cpus.iq.fu_full::IprAccess            0      0.00%    100.00% # attempts to use FU when none available
system.switch_cpus.iq.fu_full::InstPrefetch            0      0.00%    100.00% # attempts to use FU when none available
system.switch_cpus.iq.int_alu_accesses        9517806                       # Number of integer alu accesses
system.switch_cpus.iq.int_inst_queue_reads     24626014                       # Number of integer instruction queue reads
system.switch_cpus.iq.int_inst_queue_wakeup_accesses      9502592                       # Number of integer instruction queue wakeup accesses
system.switch_cpus.iq.int_inst_queue_writes     10915927                       # Number of integer instruction queue writes
system.switch_cpus.iq.iqInstsAdded           20755876                       # Number of instructions added to the IQ (excludes non-spec)
system.switch_cpus.iq.iqInstsIssued          19262631                       # Number of instructions issued
system.switch_cpus.iq.iqSquashedInstsExamined      2960893                       # Number of squashed instructions iterated over during squash; mainly for profiling
system.switch_cpus.iq.iqSquashedInstsIssued          531                       # Number of squashed instructions issued
system.switch_cpus.iq.iqSquashedOperandsExamined      3964984                       # Number of squashed operands that are examined and possibly removed from graph
system.switch_cpus.iq.issued_per_cycle::samples      5587272                       # Number of insts issued each cycle
system.switch_cpus.iq.issued_per_cycle::mean     3.447591                       # Number of insts issued each cycle
system.switch_cpus.iq.issued_per_cycle::stdev     2.540063                       # Number of insts issued each cycle
system.switch_cpus.iq.issued_per_cycle::underflows            0      0.00%      0.00% # Number of insts issued each cycle
system.switch_cpus.iq.issued_per_cycle::0      1185536     21.22%     21.22% # Number of insts issued each cycle
system.switch_cpus.iq.issued_per_cycle::1       338903      6.07%     27.28% # Number of insts issued each cycle
system.switch_cpus.iq.issued_per_cycle::2       579537     10.37%     37.66% # Number of insts issued each cycle
system.switch_cpus.iq.issued_per_cycle::3       686748     12.29%     49.95% # Number of insts issued each cycle
system.switch_cpus.iq.issued_per_cycle::4       763412     13.66%     63.61% # Number of insts issued each cycle
system.switch_cpus.iq.issued_per_cycle::5       736157     13.18%     76.79% # Number of insts issued each cycle
system.switch_cpus.iq.issued_per_cycle::6       541585      9.69%     86.48% # Number of insts issued each cycle
system.switch_cpus.iq.issued_per_cycle::7       322685      5.78%     92.26% # Number of insts issued each cycle
system.switch_cpus.iq.issued_per_cycle::8       432709      7.74%    100.00% # Number of insts issued each cycle
system.switch_cpus.iq.issued_per_cycle::overflows            0      0.00%    100.00% # Number of insts issued each cycle
system.switch_cpus.iq.issued_per_cycle::min_value            0                       # Number of insts issued each cycle
system.switch_cpus.iq.issued_per_cycle::max_value            8                       # Number of insts issued each cycle
system.switch_cpus.iq.issued_per_cycle::total      5587272                       # Number of insts issued each cycle
system.switch_cpus.iq.rate                   3.445182                       # Inst issue rate
system.switch_cpus.iq.vec_alu_accesses              0                       # Number of vector alu accesses
system.switch_cpus.iq.vec_inst_queue_reads            0                       # Number of vector instruction queue reads
system.switch_cpus.iq.vec_inst_queue_wakeup_accesses            0                       # Number of vector instruction queue wakeup accesses
system.switch_cpus.iq.vec_inst_queue_writes            0                       # Number of vector instruction queue writes
system.switch_cpus.itb.rdAccesses                   0                       # TLB accesses on read requests
system.switch_cpus.itb.rdMisses                     0                       # TLB misses on read requests
system.switch_cpus.itb.wrAccesses             1391925                       # TLB accesses on write requests
system.switch_cpus.itb.wrMisses                     8                       # TLB misses on write requests
system.switch_cpus.memDep0.conflictingLoads       114117                       # Number of conflicting loads.
system.switch_cpus.memDep0.conflictingStores            0                       # Number of conflicting stores.
system.switch_cpus.memDep0.insertedLoads      2650151                       # Number of loads inserted to the mem dependence unit.
system.switch_cpus.memDep0.insertedStores       692182                       # Number of stores inserted to the mem dependence unit.
system.switch_cpus.misc_regfile_reads         6334286                       # number of misc regfile reads
system.switch_cpus.misc_regfile_writes              1                       # number of misc regfile writes
system.switch_cpus.numCycles                  5591180                       # number of cpu cycles simulated
system.switch_cpus.numWorkItemsCompleted            0                       # number of work items this cpu completed
system.switch_cpus.numWorkItemsStarted              0                       # number of work items this cpu started
system.switch_cpus.rename.BlockCycles          930103                       # Number of cycles rename is blocking
system.switch_cpus.rename.CommittedMaps      19223235                       # Number of HB maps that are committed
system.switch_cpus.rename.IQFullEvents         339434                       # Number of times rename has blocked due to IQ full
system.switch_cpus.rename.IdleCycles          1250553                       # Number of cycles rename is idle
system.switch_cpus.rename.ROBFullEvents           900                       # Number of times rename has blocked due to ROB full
system.switch_cpus.rename.RenameLookups      47601058                       # Number of register rename lookups that rename has made
system.switch_cpus.rename.RenamedInsts       20903926                       # Number of instructions processed by rename
system.switch_cpus.rename.RenamedOperands     22737252                       # Number of destination operands rename has renamed
system.switch_cpus.rename.RunCycles           2964893                       # Number of cycles rename is running
system.switch_cpus.rename.SQFullEvents           2370                       # Number of times rename has blocked due to SQ full
system.switch_cpus.rename.SquashCycles          30881                       # Number of cycles rename is squashing
system.switch_cpus.rename.UnblockCycles        410831                       # Number of cycles rename is unblocking
system.switch_cpus.rename.UndoneMaps          3513900                       # Number of HB maps that are undone due to squashing
system.switch_cpus.rename.fp_rename_lookups     18093977                       # Number of floating rename lookups
system.switch_cpus.rename.int_rename_lookups     17965905                       # Number of integer rename lookups
system.switch_cpus.rename.serializeStallCycles            0                       # count of cycles rename stalled for serializing inst
system.switch_cpus.rename.serializingInsts            0                       # count of serializing insts renamed
system.switch_cpus.rename.skidInsts           1192659                       # count of insts added to the skid buffer
system.switch_cpus.rename.tempSerializingInsts            0                       # count of temporary serializing insts renamed
system.switch_cpus.rob.rob_reads             24456973                       # The number of ROB reads
system.switch_cpus.rob.rob_writes            41893230                       # The number of ROB writes
system.switch_cpus.timesIdled                      37                       # Number of times that the entire CPU went into an idle state and unscheduled itself
system.tol2bus.snoop_filter.hit_multi_requests            0                       # Number of requests hitting in the snoop filter with multiple (>1) holders of the requested data.
system.tol2bus.snoop_filter.hit_multi_snoops            0                       # Number of snoops hitting in the snoop filter with multiple (>1) holders of the requested data.
system.tol2bus.snoop_filter.hit_single_requests         3616                       # Number of requests hitting in the snoop filter with a single holder of the requested data.
system.tol2bus.snoop_filter.hit_single_snoops         1305                       # Number of snoops hitting in the snoop filter with a single holder of the requested data.
system.tol2bus.snoop_filter.tot_requests         8315                       # Total number of requests made to the snoop filter.
system.tol2bus.snoop_filter.tot_snoops           1305                       # Total number of snoops made to the snoop filter.
system.membus.pwrStateResidencyTicks::UNDEFINED 133782803073000                       # Cumulative time (in ticks) in various power states
system.membus.trans_dist::ReadResp               4177                       # Transaction distribution
system.membus.trans_dist::WritebackDirty         1746                       # Transaction distribution
system.membus.trans_dist::CleanEvict              223                       # Transaction distribution
system.membus.trans_dist::ReadExReq                96                       # Transaction distribution
system.membus.trans_dist::ReadExResp               96                       # Transaction distribution
system.membus.trans_dist::ReadSharedReq          4177                       # Transaction distribution
system.membus.pkt_count_system.l2.mem_side::system.mem_ctrls.port        10515                       # Packet count per connected master and slave (bytes)
system.membus.pkt_count_system.l2.mem_side::total        10515                       # Packet count per connected master and slave (bytes)
system.membus.pkt_count::total                  10515                       # Packet count per connected master and slave (bytes)
system.membus.pkt_size_system.l2.mem_side::system.mem_ctrls.port       385216                       # Cumulative packet size per connected master and slave (bytes)
system.membus.pkt_size_system.l2.mem_side::total       385216                       # Cumulative packet size per connected master and slave (bytes)
system.membus.pkt_size::total                  385216                       # Cumulative packet size per connected master and slave (bytes)
system.membus.snoops                                0                       # Total snoops (count)
system.membus.snoopTraffic                          0                       # Total snoop traffic (bytes)
system.membus.snoop_fanout::samples              4273                       # Request fanout histogram
system.membus.snoop_fanout::mean                    0                       # Request fanout histogram
system.membus.snoop_fanout::stdev                   0                       # Request fanout histogram
system.membus.snoop_fanout::underflows              0      0.00%      0.00% # Request fanout histogram
system.membus.snoop_fanout::0                    4273    100.00%    100.00% # Request fanout histogram
system.membus.snoop_fanout::1                       0      0.00%    100.00% # Request fanout histogram
system.membus.snoop_fanout::overflows               0      0.00%    100.00% # Request fanout histogram
system.membus.snoop_fanout::min_value               0                       # Request fanout histogram
system.membus.snoop_fanout::max_value               0                       # Request fanout histogram
system.membus.snoop_fanout::total                4273                       # Request fanout histogram
system.membus.reqLayer2.occupancy            14273500                       # Layer occupancy (ticks)
system.membus.reqLayer2.utilization               0.5                       # Layer utilization (%)
system.membus.respLayer1.occupancy           22660750                       # Layer occupancy (ticks)
system.membus.respLayer1.utilization              0.8                       # Layer utilization (%)
system.switch_cpus.pwrStateResidencyTicks::OFF   2795600500                       # Cumulative time (in ticks) in various power states
system.switch_cpus.dtb.walker.pwrStateResidencyTicks::UNDEFINED 133782803073000                       # Cumulative time (in ticks) in various power states
system.switch_cpus.itb.walker.pwrStateResidencyTicks::UNDEFINED 133782803073000                       # Cumulative time (in ticks) in various power states
system.tol2bus.pwrStateResidencyTicks::UNDEFINED 133782803073000                       # Cumulative time (in ticks) in various power states
system.tol2bus.trans_dist::ReadResp              4576                       # Transaction distribution
system.tol2bus.trans_dist::WritebackDirty         4684                       # Transaction distribution
system.tol2bus.trans_dist::CleanEvict            2161                       # Transaction distribution
system.tol2bus.trans_dist::ReadExReq              123                       # Transaction distribution
system.tol2bus.trans_dist::ReadExResp             123                       # Transaction distribution
system.tol2bus.trans_dist::ReadCleanReq            59                       # Transaction distribution
system.tol2bus.trans_dist::ReadSharedReq         4517                       # Transaction distribution
system.tol2bus.pkt_count_system.cpu.icache.mem_side::system.l2.cpu_side          118                       # Packet count per connected master and slave (bytes)
system.tol2bus.pkt_count_system.cpu.dcache.mem_side::system.l2.cpu_side        12896                       # Packet count per connected master and slave (bytes)
system.tol2bus.pkt_count::total                 13014                       # Packet count per connected master and slave (bytes)
system.tol2bus.pkt_size_system.cpu.icache.mem_side::system.l2.cpu_side         3776                       # Cumulative packet size per connected master and slave (bytes)
system.tol2bus.pkt_size_system.cpu.dcache.mem_side::system.l2.cpu_side       484992                       # Cumulative packet size per connected master and slave (bytes)
system.tol2bus.pkt_size::total                 488768                       # Cumulative packet size per connected master and slave (bytes)
system.tol2bus.snoops                            3229                       # Total snoops (count)
system.tol2bus.snoopTraffic                    111744                       # Total snoop traffic (bytes)
system.tol2bus.snoop_fanout::samples             7928                       # Request fanout histogram
system.tol2bus.snoop_fanout::mean            0.164606                       # Request fanout histogram
system.tol2bus.snoop_fanout::stdev           0.370848                       # Request fanout histogram
system.tol2bus.snoop_fanout::underflows             0      0.00%      0.00% # Request fanout histogram
system.tol2bus.snoop_fanout::0                   6623     83.54%     83.54% # Request fanout histogram
system.tol2bus.snoop_fanout::1                   1305     16.46%    100.00% # Request fanout histogram
system.tol2bus.snoop_fanout::2                      0      0.00%    100.00% # Request fanout histogram
system.tol2bus.snoop_fanout::3                      0      0.00%    100.00% # Request fanout histogram
system.tol2bus.snoop_fanout::4                      0      0.00%    100.00% # Request fanout histogram
system.tol2bus.snoop_fanout::overflows              0      0.00%    100.00% # Request fanout histogram
system.tol2bus.snoop_fanout::min_value              0                       # Request fanout histogram
system.tol2bus.snoop_fanout::max_value              1                       # Request fanout histogram
system.tol2bus.snoop_fanout::total               7928                       # Request fanout histogram
system.tol2bus.reqLayer0.occupancy            7093000                       # Layer occupancy (ticks)
system.tol2bus.reqLayer0.utilization              0.3                       # Layer utilization (%)
system.tol2bus.respLayer1.occupancy           6957000                       # Layer occupancy (ticks)
system.tol2bus.respLayer1.utilization             0.2                       # Layer utilization (%)
system.tol2bus.respLayer0.occupancy             84000                       # Layer occupancy (ticks)
system.tol2bus.respLayer0.utilization             0.0                       # Layer utilization (%)
system.voltage_domain.voltage                       1                       # Voltage in Volts
system.clk_domain.clock                          1000                       # Clock period in ticks
system.l2.pwrStateResidencyTicks::UNDEFINED 133782803073000                       # Cumulative time (in ticks) in various power states
system.l2.demand_hits::.switch_cpus.data          426                       # number of demand (read+write) hits
system.l2.demand_hits::total                      426                       # number of demand (read+write) hits
system.l2.overall_hits::.switch_cpus.data          426                       # number of overall hits
system.l2.overall_hits::total                     426                       # number of overall hits
system.l2.demand_misses::.cpu.inst                  3                       # number of demand (read+write) misses
system.l2.demand_misses::.cpu.data                  2                       # number of demand (read+write) misses
system.l2.demand_misses::.switch_cpus.inst           56                       # number of demand (read+write) misses
system.l2.demand_misses::.switch_cpus.data         4212                       # number of demand (read+write) misses
system.l2.demand_misses::total                   4273                       # number of demand (read+write) misses
system.l2.overall_misses::.cpu.inst                 3                       # number of overall misses
system.l2.overall_misses::.cpu.data                 2                       # number of overall misses
system.l2.overall_misses::.switch_cpus.inst           56                       # number of overall misses
system.l2.overall_misses::.switch_cpus.data         4212                       # number of overall misses
system.l2.overall_misses::total                  4273                       # number of overall misses
system.l2.demand_miss_latency::.switch_cpus.inst      4813500                       # number of demand (read+write) miss cycles
system.l2.demand_miss_latency::.switch_cpus.data    320500500                       # number of demand (read+write) miss cycles
system.l2.demand_miss_latency::total        325314000                       # number of demand (read+write) miss cycles
system.l2.overall_miss_latency::.switch_cpus.inst      4813500                       # number of overall miss cycles
system.l2.overall_miss_latency::.switch_cpus.data    320500500                       # number of overall miss cycles
system.l2.overall_miss_latency::total       325314000                       # number of overall miss cycles
system.l2.demand_accesses::.cpu.inst                3                       # number of demand (read+write) accesses
system.l2.demand_accesses::.cpu.data                2                       # number of demand (read+write) accesses
system.l2.demand_accesses::.switch_cpus.inst           56                       # number of demand (read+write) accesses
system.l2.demand_accesses::.switch_cpus.data         4638                       # number of demand (read+write) accesses
system.l2.demand_accesses::total                 4699                       # number of demand (read+write) accesses
system.l2.overall_accesses::.cpu.inst               3                       # number of overall (read+write) accesses
system.l2.overall_accesses::.cpu.data               2                       # number of overall (read+write) accesses
system.l2.overall_accesses::.switch_cpus.inst           56                       # number of overall (read+write) accesses
system.l2.overall_accesses::.switch_cpus.data         4638                       # number of overall (read+write) accesses
system.l2.overall_accesses::total                4699                       # number of overall (read+write) accesses
system.l2.demand_miss_rate::.cpu.inst               1                       # miss rate for demand accesses
system.l2.demand_miss_rate::.cpu.data               1                       # miss rate for demand accesses
system.l2.demand_miss_rate::.switch_cpus.inst            1                       # miss rate for demand accesses
system.l2.demand_miss_rate::.switch_cpus.data     0.908150                       # miss rate for demand accesses
system.l2.demand_miss_rate::total            0.909342                       # miss rate for demand accesses
system.l2.overall_miss_rate::.cpu.inst              1                       # miss rate for overall accesses
system.l2.overall_miss_rate::.cpu.data              1                       # miss rate for overall accesses
system.l2.overall_miss_rate::.switch_cpus.inst            1                       # miss rate for overall accesses
system.l2.overall_miss_rate::.switch_cpus.data     0.908150                       # miss rate for overall accesses
system.l2.overall_miss_rate::total           0.909342                       # miss rate for overall accesses
system.l2.demand_avg_miss_latency::.switch_cpus.inst 85955.357143                       # average overall miss latency
system.l2.demand_avg_miss_latency::.switch_cpus.data 76092.236467                       # average overall miss latency
system.l2.demand_avg_miss_latency::total 76132.459630                       # average overall miss latency
system.l2.overall_avg_miss_latency::.switch_cpus.inst 85955.357143                       # average overall miss latency
system.l2.overall_avg_miss_latency::.switch_cpus.data 76092.236467                       # average overall miss latency
system.l2.overall_avg_miss_latency::total 76132.459630                       # average overall miss latency
system.l2.blocked_cycles::no_mshrs                  0                       # number of cycles access was blocked
system.l2.blocked_cycles::no_targets                0                       # number of cycles access was blocked
system.l2.blocked::no_mshrs                         0                       # number of cycles access was blocked
system.l2.blocked::no_targets                       0                       # number of cycles access was blocked
system.l2.avg_blocked_cycles::no_mshrs            nan                       # average number of cycles each access was blocked
system.l2.avg_blocked_cycles::no_targets          nan                       # average number of cycles each access was blocked
system.l2.writebacks::.writebacks                1746                       # number of writebacks
system.l2.writebacks::total                      1746                       # number of writebacks
system.l2.demand_mshr_misses::.switch_cpus.inst           56                       # number of demand (read+write) MSHR misses
system.l2.demand_mshr_misses::.switch_cpus.data         4212                       # number of demand (read+write) MSHR misses
system.l2.demand_mshr_misses::total              4268                       # number of demand (read+write) MSHR misses
system.l2.overall_mshr_misses::.switch_cpus.inst           56                       # number of overall MSHR misses
system.l2.overall_mshr_misses::.switch_cpus.data         4212                       # number of overall MSHR misses
system.l2.overall_mshr_misses::total             4268                       # number of overall MSHR misses
system.l2.demand_mshr_miss_latency::.switch_cpus.inst      4253500                       # number of demand (read+write) MSHR miss cycles
system.l2.demand_mshr_miss_latency::.switch_cpus.data    278380500                       # number of demand (read+write) MSHR miss cycles
system.l2.demand_mshr_miss_latency::total    282634000                       # number of demand (read+write) MSHR miss cycles
system.l2.overall_mshr_miss_latency::.switch_cpus.inst      4253500                       # number of overall MSHR miss cycles
system.l2.overall_mshr_miss_latency::.switch_cpus.data    278380500                       # number of overall MSHR miss cycles
system.l2.overall_mshr_miss_latency::total    282634000                       # number of overall MSHR miss cycles
system.l2.demand_mshr_miss_rate::.switch_cpus.inst            1                       # mshr miss rate for demand accesses
system.l2.demand_mshr_miss_rate::.switch_cpus.data     0.908150                       # mshr miss rate for demand accesses
system.l2.demand_mshr_miss_rate::total       0.908278                       # mshr miss rate for demand accesses
system.l2.overall_mshr_miss_rate::.switch_cpus.inst            1                       # mshr miss rate for overall accesses
system.l2.overall_mshr_miss_rate::.switch_cpus.data     0.908150                       # mshr miss rate for overall accesses
system.l2.overall_mshr_miss_rate::total      0.908278                       # mshr miss rate for overall accesses
system.l2.demand_avg_mshr_miss_latency::.switch_cpus.inst 75955.357143                       # average overall mshr miss latency
system.l2.demand_avg_mshr_miss_latency::.switch_cpus.data 66092.236467                       # average overall mshr miss latency
system.l2.demand_avg_mshr_miss_latency::total 66221.649485                       # average overall mshr miss latency
system.l2.overall_avg_mshr_miss_latency::.switch_cpus.inst 75955.357143                       # average overall mshr miss latency
system.l2.overall_avg_mshr_miss_latency::.switch_cpus.data 66092.236467                       # average overall mshr miss latency
system.l2.overall_avg_mshr_miss_latency::total 66221.649485                       # average overall mshr miss latency
system.l2.replacements                           3229                       # number of replacements
system.l2.WritebackDirty_hits::.writebacks         2938                       # number of WritebackDirty hits
system.l2.WritebackDirty_hits::total             2938                       # number of WritebackDirty hits
system.l2.WritebackDirty_accesses::.writebacks         2938                       # number of WritebackDirty accesses(hits+misses)
system.l2.WritebackDirty_accesses::total         2938                       # number of WritebackDirty accesses(hits+misses)
system.l2.CleanEvict_mshr_misses::.writebacks           45                       # number of CleanEvict MSHR misses
system.l2.CleanEvict_mshr_misses::total            45                       # number of CleanEvict MSHR misses
system.l2.CleanEvict_mshr_miss_rate::.writebacks          inf                       # mshr miss rate for CleanEvict accesses
system.l2.CleanEvict_mshr_miss_rate::total          inf                       # mshr miss rate for CleanEvict accesses
system.l2.ReadExReq_hits::.switch_cpus.data           27                       # number of ReadExReq hits
system.l2.ReadExReq_hits::total                    27                       # number of ReadExReq hits
system.l2.ReadExReq_misses::.cpu.data               1                       # number of ReadExReq misses
system.l2.ReadExReq_misses::.switch_cpus.data           95                       # number of ReadExReq misses
system.l2.ReadExReq_misses::total                  96                       # number of ReadExReq misses
system.l2.ReadExReq_miss_latency::.switch_cpus.data      8704500                       # number of ReadExReq miss cycles
system.l2.ReadExReq_miss_latency::total       8704500                       # number of ReadExReq miss cycles
system.l2.ReadExReq_accesses::.cpu.data             1                       # number of ReadExReq accesses(hits+misses)
system.l2.ReadExReq_accesses::.switch_cpus.data          122                       # number of ReadExReq accesses(hits+misses)
system.l2.ReadExReq_accesses::total               123                       # number of ReadExReq accesses(hits+misses)
system.l2.ReadExReq_miss_rate::.cpu.data            1                       # miss rate for ReadExReq accesses
system.l2.ReadExReq_miss_rate::.switch_cpus.data     0.778689                       # miss rate for ReadExReq accesses
system.l2.ReadExReq_miss_rate::total         0.780488                       # miss rate for ReadExReq accesses
system.l2.ReadExReq_avg_miss_latency::.switch_cpus.data 91626.315789                       # average ReadExReq miss latency
system.l2.ReadExReq_avg_miss_latency::total 90671.875000                       # average ReadExReq miss latency
system.l2.ReadExReq_mshr_misses::.switch_cpus.data           95                       # number of ReadExReq MSHR misses
system.l2.ReadExReq_mshr_misses::total             95                       # number of ReadExReq MSHR misses
system.l2.ReadExReq_mshr_miss_latency::.switch_cpus.data      7754500                       # number of ReadExReq MSHR miss cycles
system.l2.ReadExReq_mshr_miss_latency::total      7754500                       # number of ReadExReq MSHR miss cycles
system.l2.ReadExReq_mshr_miss_rate::.switch_cpus.data     0.778689                       # mshr miss rate for ReadExReq accesses
system.l2.ReadExReq_mshr_miss_rate::total     0.772358                       # mshr miss rate for ReadExReq accesses
system.l2.ReadExReq_avg_mshr_miss_latency::.switch_cpus.data 81626.315789                       # average ReadExReq mshr miss latency
system.l2.ReadExReq_avg_mshr_miss_latency::total 81626.315789                       # average ReadExReq mshr miss latency
system.l2.ReadCleanReq_misses::.cpu.inst            3                       # number of ReadCleanReq misses
system.l2.ReadCleanReq_misses::.switch_cpus.inst           56                       # number of ReadCleanReq misses
system.l2.ReadCleanReq_misses::total               59                       # number of ReadCleanReq misses
system.l2.ReadCleanReq_miss_latency::.switch_cpus.inst      4813500                       # number of ReadCleanReq miss cycles
system.l2.ReadCleanReq_miss_latency::total      4813500                       # number of ReadCleanReq miss cycles
system.l2.ReadCleanReq_accesses::.cpu.inst            3                       # number of ReadCleanReq accesses(hits+misses)
system.l2.ReadCleanReq_accesses::.switch_cpus.inst           56                       # number of ReadCleanReq accesses(hits+misses)
system.l2.ReadCleanReq_accesses::total             59                       # number of ReadCleanReq accesses(hits+misses)
system.l2.ReadCleanReq_miss_rate::.cpu.inst            1                       # miss rate for ReadCleanReq accesses
system.l2.ReadCleanReq_miss_rate::.switch_cpus.inst            1                       # miss rate for ReadCleanReq accesses
system.l2.ReadCleanReq_miss_rate::total             1                       # miss rate for ReadCleanReq accesses
system.l2.ReadCleanReq_avg_miss_latency::.switch_cpus.inst 85955.357143                       # average ReadCleanReq miss latency
system.l2.ReadCleanReq_avg_miss_latency::total 81584.745763                       # average ReadCleanReq miss latency
system.l2.ReadCleanReq_mshr_misses::.switch_cpus.inst           56                       # number of ReadCleanReq MSHR misses
system.l2.ReadCleanReq_mshr_misses::total           56                       # number of ReadCleanReq MSHR misses
system.l2.ReadCleanReq_mshr_miss_latency::.switch_cpus.inst      4253500                       # number of ReadCleanReq MSHR miss cycles
system.l2.ReadCleanReq_mshr_miss_latency::total      4253500                       # number of ReadCleanReq MSHR miss cycles
system.l2.ReadCleanReq_mshr_miss_rate::.switch_cpus.inst            1                       # mshr miss rate for ReadCleanReq accesses
system.l2.ReadCleanReq_mshr_miss_rate::total     0.949153                       # mshr miss rate for ReadCleanReq accesses
system.l2.ReadCleanReq_avg_mshr_miss_latency::.switch_cpus.inst 75955.357143                       # average ReadCleanReq mshr miss latency
system.l2.ReadCleanReq_avg_mshr_miss_latency::total 75955.357143                       # average ReadCleanReq mshr miss latency
[...]
system.cpu.itb_walker_cache.pwrStateResidencyTicks::UNDEFINED 133791179547000                       # Cumulative time (in ticks) in various power states
system.cpu.itb_walker_cache.blocked_cycles::no_mshrs            0                       # number of cycles access was blocked
system.cpu.itb_walker_cache.blocked_cycles::no_targets            0                       # number of cycles access was blocked
system.cpu.itb_walker_cache.blocked::no_mshrs            0                       # number of cycles access was blocked
system.cpu.itb_walker_cache.blocked::no_targets            0                       # number of cycles access was blocked
system.cpu.itb_walker_cache.avg_blocked_cycles::no_mshrs          nan                       # average number of cycles each access was blocked
system.cpu.itb_walker_cache.avg_blocked_cycles::no_targets          nan                       # average number of cycles each access was blocked
system.cpu.itb_walker_cache.replacements            0                       # number of replacements
system.cpu.itb_walker_cache.tags.pwrStateResidencyTicks::UNDEFINED 133791179547000                       # Cumulative time (in ticks) in various power states
system.cpu.itb_walker_cache.tags.tagsinuse            0                       # Cycle average of tags in use
system.cpu.itb_walker_cache.tags.total_refs            0                       # Total number of references to valid blocks.
system.cpu.itb_walker_cache.tags.sampled_refs            0                       # Sample count of references to valid blocks.
system.cpu.itb_walker_cache.tags.avg_refs          nan                       # Average number of references to valid blocks.
system.cpu.itb_walker_cache.tags.warmup_cycle            0                       # Cycle when the warmup percentage was hit.
system.cpu.itb_walker_cache.tags.tag_accesses            0                       # Number of tag accesses
system.cpu.itb_walker_cache.tags.data_accesses            0                       # Number of data accesses
system.cpu.itb.walker.pwrStateResidencyTicks::UNDEFINED 133791179547000                       # Cumulative time (in ticks) in various power states
system.cpu.dtb_walker_cache.pwrStateResidencyTicks::UNDEFINED 133791179547000                       # Cumulative time (in ticks) in various power states
system.cpu.dtb_walker_cache.blocked_cycles::no_mshrs            0                       # number of cycles access was blocked
system.cpu.dtb_walker_cache.blocked_cycles::no_targets            0                       # number of cycles access was blocked
system.cpu.dtb_walker_cache.blocked::no_mshrs            0                       # number of cycles access was blocked
system.cpu.dtb_walker_cache.blocked::no_targets            0                       # number of cycles access was blocked
system.cpu.dtb_walker_cache.avg_blocked_cycles::no_mshrs          nan                       # average number of cycles each access was blocked
system.cpu.dtb_walker_cache.avg_blocked_cycles::no_targets          nan                       # average number of cycles each access was blocked
system.cpu.dtb_walker_cache.replacements            0                       # number of replacements
system.cpu.dtb_walker_cache.tags.pwrStateResidencyTicks::UNDEFINED 133791179547000                       # Cumulative time (in ticks) in various power states
system.cpu.dtb_walker_cache.tags.tagsinuse            0                       # Cycle average of tags in use
system.cpu.dtb_walker_cache.tags.total_refs            0                       # Total number of references to valid blocks.
system.cpu.dtb_walker_cache.tags.sampled_refs            0                       # Sample count of references to valid blocks.
system.cpu.dtb_walker_cache.tags.avg_refs          nan                       # Average number of references to valid blocks.
system.cpu.dtb_walker_cache.tags.warmup_cycle            0                       # Cycle when the warmup percentage was hit.
system.cpu.dtb_walker_cache.tags.tag_accesses            0                       # Number of tag accesses
system.cpu.dtb_walker_cache.tags.data_accesses            0                       # Number of data accesses
system.cpu.dcache.pwrStateResidencyTicks::UNDEFINED 133791179547000                       # Cumulative time (in ticks) in various power states
system.cpu.dcache.demand_hits::.cpu.data            4                       # number of demand (read+write) hits
system.cpu.dcache.demand_hits::.switch_cpus.data     12421742                       # number of demand (read+write) hits
system.cpu.dcache.demand_hits::total         12421746                       # number of demand (read+write) hits
system.cpu.dcache.overall_hits::.cpu.data            4                       # number of overall hits
system.cpu.dcache.overall_hits::.switch_cpus.data     12421742                       # number of overall hits
system.cpu.dcache.overall_hits::total        12421746                       # number of overall hits
system.cpu.dcache.demand_misses::.cpu.data            2                       # number of demand (read+write) misses
system.cpu.dcache.demand_misses::.switch_cpus.data        18118                       # number of demand (read+write) misses
system.cpu.dcache.demand_misses::total          18120                       # number of demand (read+write) misses
system.cpu.dcache.overall_misses::.cpu.data            2                       # number of overall misses
system.cpu.dcache.overall_misses::.switch_cpus.data        18118                       # number of overall misses
system.cpu.dcache.overall_misses::total         18120                       # number of overall misses
system.cpu.dcache.demand_miss_latency::.switch_cpus.data   1336471500                       # number of demand (read+write) miss cycles
system.cpu.dcache.demand_miss_latency::total   1336471500                       # number of demand (read+write) miss cycles
system.cpu.dcache.overall_miss_latency::.switch_cpus.data   1336471500                       # number of overall miss cycles
system.cpu.dcache.overall_miss_latency::total   1336471500                       # number of overall miss cycles
system.cpu.dcache.demand_accesses::.cpu.data            6                       # number of demand (read+write) accesses
system.cpu.dcache.demand_accesses::.switch_cpus.data     12439860                       # number of demand (read+write) accesses
system.cpu.dcache.demand_accesses::total     12439866                       # number of demand (read+write) accesses
system.cpu.dcache.overall_accesses::.cpu.data            6                       # number of overall (read+write) accesses
system.cpu.dcache.overall_accesses::.switch_cpus.data     12439860                       # number of overall (read+write) accesses
system.cpu.dcache.overall_accesses::total     12439866                       # number of overall (read+write) accesses
system.cpu.dcache.demand_miss_rate::.cpu.data     0.333333                       # miss rate for demand accesses
system.cpu.dcache.demand_miss_rate::.switch_cpus.data     0.001456                       # miss rate for demand accesses
system.cpu.dcache.demand_miss_rate::total     0.001457                       # miss rate for demand accesses
system.cpu.dcache.overall_miss_rate::.cpu.data     0.333333                       # miss rate for overall accesses
system.cpu.dcache.overall_miss_rate::.switch_cpus.data     0.001456                       # miss rate for overall accesses
system.cpu.dcache.overall_miss_rate::total     0.001457                       # miss rate for overall accesses
system.cpu.dcache.demand_avg_miss_latency::.switch_cpus.data 73764.847113                       # average overall miss latency
system.cpu.dcache.demand_avg_miss_latency::total 73756.705298                       # average overall miss latency
system.cpu.dcache.overall_avg_miss_latency::.switch_cpus.data 73764.847113                       # average overall miss latency
system.cpu.dcache.overall_avg_miss_latency::total 73756.705298                       # average overall miss latency
system.cpu.dcache.blocked_cycles::no_mshrs          217                       # number of cycles access was blocked
system.cpu.dcache.blocked_cycles::no_targets            0                       # number of cycles access was blocked
system.cpu.dcache.blocked::no_mshrs                 6                       # number of cycles access was blocked
system.cpu.dcache.blocked::no_targets               0                       # number of cycles access was blocked
system.cpu.dcache.avg_blocked_cycles::no_mshrs    36.166667                       # average number of cycles each access was blocked
system.cpu.dcache.avg_blocked_cycles::no_targets          nan                       # average number of cycles each access was blocked
system.cpu.dcache.writebacks::.writebacks        14049                       # number of writebacks
system.cpu.dcache.writebacks::total             14049                       # number of writebacks
system.cpu.dcache.demand_mshr_hits::.switch_cpus.data          948                       # number of demand (read+write) MSHR hits
system.cpu.dcache.demand_mshr_hits::total          948                       # number of demand (read+write) MSHR hits
system.cpu.dcache.overall_mshr_hits::.switch_cpus.data          948                       # number of overall MSHR hits
system.cpu.dcache.overall_mshr_hits::total          948                       # number of overall MSHR hits
system.cpu.dcache.demand_mshr_misses::.switch_cpus.data        17170                       # number of demand (read+write) MSHR misses
system.cpu.dcache.demand_mshr_misses::total        17170                       # number of demand (read+write) MSHR misses
system.cpu.dcache.overall_mshr_misses::.switch_cpus.data        17170                       # number of overall MSHR misses
system.cpu.dcache.overall_mshr_misses::total        17170                       # number of overall MSHR misses
system.cpu.dcache.demand_mshr_miss_latency::.switch_cpus.data   1274872000                       # number of demand (read+write) MSHR miss cycles
system.cpu.dcache.demand_mshr_miss_latency::total   1274872000                       # number of demand (read+write) MSHR miss cycles
system.cpu.dcache.overall_mshr_miss_latency::.switch_cpus.data   1274872000                       # number of overall MSHR miss cycles
system.cpu.dcache.overall_mshr_miss_latency::total   1274872000                       # number of overall MSHR miss cycles
system.cpu.dcache.demand_mshr_miss_rate::.switch_cpus.data     0.001380                       # mshr miss rate for demand accesses
system.cpu.dcache.demand_mshr_miss_rate::total     0.001380                       # mshr miss rate for demand accesses
system.cpu.dcache.overall_mshr_miss_rate::.switch_cpus.data     0.001380                       # mshr miss rate for overall accesses
system.cpu.dcache.overall_mshr_miss_rate::total     0.001380                       # mshr miss rate for overall accesses
system.cpu.dcache.demand_avg_mshr_miss_latency::.switch_cpus.data 74249.970879                       # average overall mshr miss latency
system.cpu.dcache.demand_avg_mshr_miss_latency::total 74249.970879                       # average overall mshr miss latency
system.cpu.dcache.overall_avg_mshr_miss_latency::.switch_cpus.data 74249.970879                       # average overall mshr miss latency
system.cpu.dcache.overall_avg_mshr_miss_latency::total 74249.970879                       # average overall mshr miss latency
system.cpu.dcache.replacements                  16148                       # number of replacements
system.cpu.dcache.ReadReq_hits::.switch_cpus.data      9682241                       # number of ReadReq hits
system.cpu.dcache.ReadReq_hits::total         9682241                       # number of ReadReq hits
system.cpu.dcache.ReadReq_misses::.cpu.data            1                       # number of ReadReq misses
system.cpu.dcache.ReadReq_misses::.switch_cpus.data        17627                       # number of ReadReq misses
system.cpu.dcache.ReadReq_misses::total         17628                       # number of ReadReq misses
system.cpu.dcache.ReadReq_miss_latency::.switch_cpus.data   1299818000                       # number of ReadReq miss cycles
system.cpu.dcache.ReadReq_miss_latency::total   1299818000                       # number of ReadReq miss cycles
system.cpu.dcache.ReadReq_accesses::.cpu.data            1                       # number of ReadReq accesses(hits+misses)
system.cpu.dcache.ReadReq_accesses::.switch_cpus.data      9699868                       # number of ReadReq accesses(hits+misses)
system.cpu.dcache.ReadReq_accesses::total      9699869                       # number of ReadReq accesses(hits+misses)
system.cpu.dcache.ReadReq_miss_rate::.cpu.data            1                       # miss rate for ReadReq accesses
system.cpu.dcache.ReadReq_miss_rate::.switch_cpus.data     0.001817                       # miss rate for ReadReq accesses
system.cpu.dcache.ReadReq_miss_rate::total     0.001817                       # miss rate for ReadReq accesses
system.cpu.dcache.ReadReq_avg_miss_latency::.switch_cpus.data 73740.171328                       # average ReadReq miss latency
system.cpu.dcache.ReadReq_avg_miss_latency::total 73735.988201                       # average ReadReq miss latency
system.cpu.dcache.ReadReq_mshr_hits::.switch_cpus.data          948                       # number of ReadReq MSHR hits
system.cpu.dcache.ReadReq_mshr_hits::total          948                       # number of ReadReq MSHR hits
system.cpu.dcache.ReadReq_mshr_misses::.switch_cpus.data        16679                       # number of ReadReq MSHR misses
system.cpu.dcache.ReadReq_mshr_misses::total        16679                       # number of ReadReq MSHR misses
system.cpu.dcache.ReadReq_mshr_miss_latency::.switch_cpus.data   1238709500                       # number of ReadReq MSHR miss cycles
system.cpu.dcache.ReadReq_mshr_miss_latency::total   1238709500                       # number of ReadReq MSHR miss cycles
system.cpu.dcache.ReadReq_mshr_miss_rate::.switch_cpus.data     0.001720                       # mshr miss rate for ReadReq accesses
system.cpu.dcache.ReadReq_mshr_miss_rate::total     0.001720                       # mshr miss rate for ReadReq accesses
system.cpu.dcache.ReadReq_avg_mshr_miss_latency::.switch_cpus.data 74267.611967                       # average ReadReq mshr miss latency
system.cpu.dcache.ReadReq_avg_mshr_miss_latency::total 74267.611967                       # average ReadReq mshr miss latency
system.cpu.dcache.WriteReq_hits::.cpu.data            4                       # number of WriteReq hits
system.cpu.dcache.WriteReq_hits::.switch_cpus.data      2739501                       # number of WriteReq hits
system.cpu.dcache.WriteReq_hits::total        2739505                       # number of WriteReq hits
system.cpu.dcache.WriteReq_misses::.cpu.data            1                       # number of WriteReq misses
system.cpu.dcache.WriteReq_misses::.switch_cpus.data          491                       # number of WriteReq misses
system.cpu.dcache.WriteReq_misses::total          492                       # number of WriteReq misses
system.cpu.dcache.WriteReq_miss_latency::.switch_cpus.data     36653500                       # number of WriteReq miss cycles
system.cpu.dcache.WriteReq_miss_latency::total     36653500                       # number of WriteReq miss cycles
system.cpu.dcache.WriteReq_accesses::.cpu.data            5                       # number of WriteReq accesses(hits+misses)
system.cpu.dcache.WriteReq_accesses::.switch_cpus.data      2739992                       # number of WriteReq accesses(hits+misses)
system.cpu.dcache.WriteReq_accesses::total      2739997                       # number of WriteReq accesses(hits+misses)
system.cpu.dcache.WriteReq_miss_rate::.cpu.data     0.200000                       # miss rate for WriteReq accesses
system.cpu.dcache.WriteReq_miss_rate::.switch_cpus.data     0.000179                       # miss rate for WriteReq accesses
system.cpu.dcache.WriteReq_miss_rate::total     0.000180                       # miss rate for WriteReq accesses
system.cpu.dcache.WriteReq_avg_miss_latency::.switch_cpus.data 74650.712831                       # average WriteReq miss latency
system.cpu.dcache.WriteReq_avg_miss_latency::total 74498.983740                       # average WriteReq miss latency
system.cpu.dcache.WriteReq_mshr_misses::.switch_cpus.data          491                       # number of WriteReq MSHR misses
system.cpu.dcache.WriteReq_mshr_misses::total          491                       # number of WriteReq MSHR misses
system.cpu.dcache.WriteReq_mshr_miss_latency::.switch_cpus.data     36162500                       # number of WriteReq MSHR miss cycles
system.cpu.dcache.WriteReq_mshr_miss_latency::total     36162500                       # number of WriteReq MSHR miss cycles
system.cpu.dcache.WriteReq_mshr_miss_rate::.switch_cpus.data     0.000179                       # mshr miss rate for WriteReq accesses
system.cpu.dcache.WriteReq_mshr_miss_rate::total     0.000179                       # mshr miss rate for WriteReq accesses
system.cpu.dcache.WriteReq_avg_mshr_miss_latency::.switch_cpus.data 73650.712831                       # average WriteReq mshr miss latency
system.cpu.dcache.WriteReq_avg_mshr_miss_latency::total 73650.712831                       # average WriteReq mshr miss latency
system.cpu.dcache.tags.pwrStateResidencyTicks::UNDEFINED 133791179547000                       # Cumulative time (in ticks) in various power states
system.cpu.dcache.tags.tagsinuse             0.083520                       # Cycle average of tags in use
system.cpu.dcache.tags.total_refs            12438918                       # Total number of references to valid blocks.
system.cpu.dcache.tags.sampled_refs             17172                       # Sample count of references to valid blocks.
system.cpu.dcache.tags.avg_refs            724.372117                       # Average number of references to valid blocks.
system.cpu.dcache.tags.warmup_cycle      133780007476500                       # Cycle when the warmup percentage was hit.
system.cpu.dcache.tags.occ_blocks::.cpu.data     0.000089                       # Average occupied blocks per requestor
system.cpu.dcache.tags.occ_blocks::.switch_cpus.data     0.083431                       # Average occupied blocks per requestor
system.cpu.dcache.tags.occ_percent::.cpu.data     0.000000                       # Average percentage of cache occupancy
system.cpu.dcache.tags.occ_percent::.switch_cpus.data     0.000081                       # Average percentage of cache occupancy
system.cpu.dcache.tags.occ_percent::total     0.000082                       # Average percentage of cache occupancy
system.cpu.dcache.tags.occ_task_id_blocks::1024         1024                       # Occupied blocks per task id
system.cpu.dcache.tags.age_task_id_blocks_1024::0           15                       # Occupied blocks per task id
system.cpu.dcache.tags.age_task_id_blocks_1024::1          127                       # Occupied blocks per task id
system.cpu.dcache.tags.age_task_id_blocks_1024::2          677                       # Occupied blocks per task id
system.cpu.dcache.tags.age_task_id_blocks_1024::3           60                       # Occupied blocks per task id
system.cpu.dcache.tags.age_task_id_blocks_1024::4          145                       # Occupied blocks per task id
system.cpu.dcache.tags.occ_task_id_percent::1024            1                       # Percentage of cache occupancy per task id
system.cpu.dcache.tags.tag_accesses          24896904                       # Number of tag accesses
system.cpu.dcache.tags.data_accesses         24896904                       # Number of data accesses

---------- End Simulation Statistics   ----------
