
---------- Begin Simulation Statistics ----------
final_tick                               92842738736000                       # Number of ticks from beginning of simulation (restored from checkpoints and never reset)
host_inst_rate                                  14821                       # Simulator instruction rate (inst/s)
host_mem_usage                                 827016                       # Number of bytes of host memory used
host_op_rate                                    24017                       # Simulator op (including micro ops) rate (op/s)
host_seconds                                   674.71                       # Real time elapsed on the host
host_tick_rate                               91363002                       # Simulator tick rate (ticks/s)
sim_freq                                 1000000000000                       # Frequency of simulated ticks
sim_insts                                    10000010                       # Number of instructions simulated
sim_ops                                      16204568                       # Number of ops (including micro ops) simulated
sim_seconds                                  0.061643                       # Number of seconds simulated
sim_ticks                                 61643309750                       # Number of ticks simulated
system.cpu.Branches                                 3                       # Number of branches fetched
system.cpu.committedInsts                          10                       # Number of instructions committed
system.cpu.committedOps                            18                       # Number of ops (including micro ops) committed
system.cpu.dtb.rdAccesses                           4                       # TLB accesses on read requests
system.cpu.dtb.rdMisses                             0                       # TLB misses on read requests
system.cpu.dtb.wrAccesses                           0                       # TLB accesses on write requests
system.cpu.dtb.wrMisses                             0                       # TLB misses on write requests
system.cpu.idle_fraction                            0                       # Percentage of idle cycles
system.cpu.itb.rdAccesses                           0                       # TLB accesses on read requests
system.cpu.itb.rdMisses                             0                       # TLB misses on read requests
system.cpu.itb.wrAccesses                          13                       # TLB accesses on write requests
system.cpu.itb.wrMisses                             0                       # TLB misses on write requests
system.cpu.not_idle_fraction                        1                       # Percentage of non-idle cycles
system.cpu.numCycles                               21                       # number of cpu cycles simulated
system.cpu.numWorkItemsCompleted                    0                       # number of work items this cpu completed
system.cpu.numWorkItemsStarted                      0                       # number of work items this cpu started
system.cpu.num_busy_cycles                         21                       # Number of busy cycles
system.cpu.num_cc_register_reads                   16                       # number of times the CC registers were read
system.cpu.num_cc_register_writes                   8                       # number of times the CC registers were written
system.cpu.num_conditional_control_insts            3                       # number of instructions that are conditional controls
system.cpu.num_fp_alu_accesses                      0                       # Number of float alu accesses
system.cpu.num_fp_insts                             0                       # number of float instructions
system.cpu.num_fp_register_reads                    0                       # number of times the floating registers were read
system.cpu.num_fp_register_writes                   0                       # number of times the floating registers were written
system.cpu.num_func_calls                           0                       # number of times a function call or return occured
system.cpu.num_idle_cycles                          0                       # Number of idle cycles
system.cpu.num_int_alu_accesses                    18                       # Number of integer alu accesses
system.cpu.num_int_insts                           18                       # number of integer instructions
system.cpu.num_int_register_reads                  33                       # number of times the integer registers were read
system.cpu.num_int_register_writes                 15                       # number of times the integer registers were written
system.cpu.num_load_insts                           4                       # Number of load instructions
system.cpu.num_mem_refs                             4                       # number of memory refs
system.cpu.num_store_insts                          0                       # Number of store instructions
system.cpu.num_vec_alu_accesses                     0                       # Number of vector alu accesses
system.cpu.num_vec_insts                            0                       # number of vector instructions
system.cpu.num_vec_register_reads                   0                       # number of times the vector registers were read
system.cpu.num_vec_register_writes                  0                       # number of times the vector registers were written
system.cpu.op_class::No_OpClass                     0      0.00%      0.00% # Class of executed instruction
system.cpu.op_class::IntAlu                        14     77.78%     77.78% # Class of executed instruction
system.cpu.op_class::IntMult                        0      0.00%     77.78% # Class of executed instruction
system.cpu.op_class::IntDiv                         0      0.00%     77.78% # Class of executed instruction
system.cpu.op_class::FloatAdd                       0      0.00%     77.78% # Class of executed instruction
system.cpu.op_class::FloatCmp                       0      0.00%     77.78% # Class of executed instruction
system.cpu.op_class::FloatCvt                       0      0.00%     77.78% # Class of executed instruction
system.cpu.op_class::FloatMult                      0      0.00%     77.78% # Class of executed instruction
system.cpu.op_class::FloatMultAcc                   0      0.00%     77.78% # Class of executed instruction
system.cpu.op_class::FloatDiv                       0      0.00%     77.78% # Class of executed instruction
system.cpu.op_class::FloatMisc                      0      0.00%     77.78% # Class of executed instruction
system.cpu.op_class::FloatSqrt                      0      0.00%     77.78% # Class of executed instruction
system.cpu.op_class::SimdAdd                        0      0.00%     77.78% # Class of executed instruction
system.cpu.op_class::SimdAddAcc                     0      0.00%     77.78% # Class of executed instruction
system.cpu.op_class::SimdAlu                        0      0.00%     77.78% # Class of executed instruction
system.cpu.op_class::SimdCmp                        0      0.00%     77.78% # Class of executed instruction
system.cpu.op_class::SimdCvt                        0      0.00%     77.78% # Class of executed instruction
system.cpu.op_class::SimdMisc                       0      0.00%     77.78% # Class of executed instruction
system.cpu.op_class::SimdMult                       0      0.00%     77.78% # Class of executed instruction
system.cpu.op_class::SimdMultAcc                    0      0.00%     77.78% # Class of executed instruction
system.cpu.op_class::SimdShift                      0      0.00%     77.78% # Class of executed instruction
system.cpu.op_class::SimdShiftAcc                   0      0.00%     77.78% # Class of executed instruction
system.cpu.op_class::SimdDiv                        0      0.00%     77.78% # Class of executed instruction
system.cpu.op_class::SimdSqrt                       0      0.00%     77.78% # Class of executed instruction
system.cpu.op_class::SimdFloatAdd                   0      0.00%     77.78% # Class of executed instruction
system.cpu.op_class::SimdFloatAlu                   0      0.00%     77.78% # Class of executed instruction
system.cpu.op_class::SimdFloatCmp                   0      0.00%     77.78% # Class of executed instruction
system.cpu.op_class::SimdFloatCvt                   0      0.00%     77.78% # Class of executed instruction
system.cpu.op_class::SimdFloatDiv                   0      0.00%     77.78% # Class of executed instruction
system.cpu.op_class::SimdFloatMisc                  0      0.00%     77.78% # Class of executed instruction
system.cpu.op_class::SimdFloatMult                  0      0.00%     77.78% # Class of executed instruction
system.cpu.op_class::SimdFloatMultAcc               0      0.00%     77.78% # Class of executed instruction
system.cpu.op_class::SimdFloatSqrt                  0      0.00%     77.78% # Class of executed instruction
system.cpu.op_class::SimdReduceAdd                  0      0.00%     77.78% # Class of executed instruction
system.cpu.op_class::SimdReduceAlu                  0      0.00%     77.78% # Class of executed instruction
system.cpu.op_class::SimdReduceCmp                  0      0.00%     77.78% # Class of executed instruction
system.cpu.op_class::SimdFloatReduceAdd             0      0.00%     77.78% # Class of executed instruction
system.cpu.op_class::SimdFloatReduceCmp             0      0.00%     77.78% # Class of executed instruction
system.cpu.op_class::SimdAes                        0      0.00%     77.78% # Class of executed instruction
system.cpu.op_class::SimdAesMix                     0      0.00%     77.78% # Class of executed instruction
system.cpu.op_class::SimdSha1Hash                   0      0.00%     77.78% # Class of executed instruction
system.cpu.op_class::SimdSha1Hash2                  0      0.00%     77.78% # Class of executed instruction
system.cpu.op_class::SimdSha256Hash                 0      0.00%     77.78% # Class of executed instruction
system.cpu.op_class::SimdSha256Hash2                0      0.00%     77.78% # Class of executed instruction
system.cpu.op_class::SimdShaSigma2                  0      0.00%     77.78% # Class of executed instruction
system.cpu.op_class::SimdShaSigma3                  0      0.00%     77.78% # Class of executed instruction
system.cpu.op_class::SimdPredAlu                    0      0.00%     77.78% # Class of executed instruction
system.cpu.op_class::MemRead                        4     22.22%    100.00% # Class of executed instruction
system.cpu.op_class::MemWrite                       0      0.00%    100.00% # Class of executed instruction
system.cpu.op_class::FloatMemRead                   0      0.00%    100.00% # Class of executed instruction
system.cpu.op_class::FloatMemWrite                  0      0.00%    100.00% # Class of executed instruction
system.cpu.op_class::IprAccess                      0      0.00%    100.00% # Class of executed instruction
system.cpu.op_class::InstPrefetch                   0      0.00%    100.00% # Class of executed instruction
system.cpu.op_class::total                         18                       # Class of executed instruction
system.cpu.workload.numSyscalls                     0                       # Number of system calls
system.membus.snoop_filter.hit_multi_requests            0                       # Number of requests hitting in the snoop filter with multiple (>1) holders of the requested data.
system.membus.snoop_filter.hit_multi_snoops            0                       # Number of snoops hitting in the snoop filter with multiple (>1) holders of the requested data.
system.membus.snoop_filter.hit_single_requests      1532002                       # Number of requests hitting in the snoop filter with a single holder of the requested data.
system.membus.snoop_filter.hit_single_snoops            0                       # Number of snoops hitting in the snoop filter with a single holder of the requested data.
system.membus.snoop_filter.tot_requests       3066505                       # Total number of requests made to the snoop filter.
system.membus.snoop_filter.tot_snoops               0                       # Total number of snoops made to the snoop filter.
system.switch_cpus.branchPred.BTBCorrect            0                       # Number of correct BTB predictions (this stat may not work properly.
system.switch_cpus.branchPred.BTBHitPct      0.000000                       # BTB Hit Percentage
system.switch_cpus.branchPred.BTBHits               0                       # Number of BTB hits
system.switch_cpus.branchPred.BTBLookups      2006155                       # Number of BTB lookups
system.switch_cpus.branchPred.RASInCorrect            0                       # Number of incorrect RAS predictions.
system.switch_cpus.branchPred.condIncorrect       176532                       # Number of conditional branches incorrect
system.switch_cpus.branchPred.condPredicted      4369329                       # Number of conditional branches predicted
system.switch_cpus.branchPred.indirectHits      1615252                       # Number of indirect target hits.
system.switch_cpus.branchPred.indirectLookups      2006155                       # Number of indirect predictor lookups.
system.switch_cpus.branchPred.indirectMisses       390903                       # Number of indirect misses.
system.switch_cpus.branchPred.lookups         4377804                       # Number of BP lookups
system.switch_cpus.branchPred.usedRAS             213                       # Number of times the RAS was used to get a target.
system.switch_cpus.branchPredindirectMispredicted        28094                       # Number of mispredicted indirect branches.
system.switch_cpus.cc_regfile_reads          12874797                       # number of cc regfile reads
system.switch_cpus.cc_regfile_writes          9405147                       # number of cc regfile writes
system.switch_cpus.commit.amos                      0                       # Number of atomic instructions committed
system.switch_cpus.commit.branchMispredicts       176533                       # The number of times a branch was mispredicted
system.switch_cpus.commit.branches            1904056                       # Number of branches committed
system.switch_cpus.commit.bw_lim_events        606739                       # number cycles where commit BW limit reached
system.switch_cpus.commit.commitSquashedInsts     15342215                       # The number of squashed insts skipped by commit
system.switch_cpus.commit.committedInsts     10000000                       # Number of instructions committed
system.switch_cpus.commit.committedOps       16204550                       # Number of ops (including micro ops) committed
system.switch_cpus.commit.committed_per_cycle::samples    121183439                       # Number of insts commited each cycle
system.switch_cpus.commit.committed_per_cycle::mean     0.133719                       # Number of insts commited each cycle
system.switch_cpus.commit.committed_per_cycle::stdev     0.756930                       # Number of insts commited each cycle
system.switch_cpus.commit.committed_per_cycle::underflows            0      0.00%      0.00% # Number of insts commited each cycle
system.switch_cpus.commit.committed_per_cycle::0    115036488     94.93%     94.93% # Number of insts commited each cycle
system.switch_cpus.commit.committed_per_cycle::1      2624990      2.17%     97.09% # Number of insts commited each cycle
system.switch_cpus.commit.committed_per_cycle::2      1282683      1.06%     98.15% # Number of insts commited each cycle
system.switch_cpus.commit.committed_per_cycle::3       848425      0.70%     98.85% # Number of insts commited each cycle
system.switch_cpus.commit.committed_per_cycle::4       518395      0.43%     99.28% # Number of insts commited each cycle
system.switch_cpus.commit.committed_per_cycle::5       101292      0.08%     99.36% # Number of insts commited each cycle
system.switch_cpus.commit.committed_per_cycle::6       116022      0.10%     99.46% # Number of insts commited each cycle
system.switch_cpus.commit.committed_per_cycle::7        48405      0.04%     99.50% # Number of insts commited each cycle
system.switch_cpus.commit.committed_per_cycle::8       606739      0.50%    100.00% # Number of insts commited each cycle
system.switch_cpus.commit.committed_per_cycle::overflows            0      0.00%    100.00% # Number of insts commited each cycle
system.switch_cpus.commit.committed_per_cycle::min_value            0                       # Number of insts commited each cycle
system.switch_cpus.commit.committed_per_cycle::max_value            8                       # Number of insts commited each cycle
system.switch_cpus.commit.committed_per_cycle::total    121183439                       # Number of insts commited each cycle
system.switch_cpus.commit.fp_insts                  0                       # Number of committed floating point instructions.
system.switch_cpus.commit.function_calls            0                       # Number of function calls committed.
system.switch_cpus.commit.int_insts          16204186                       # Number of committed integer instructions.
system.switch_cpus.commit.loads               3567032                       # Number of loads committed
system.switch_cpus.commit.membars                   0                       # Number of memory barriers committed
system.switch_cpus.commit.op_class_0::No_OpClass            0      0.00%      0.00% # Class of committed instruction
system.switch_cpus.commit.op_class_0::IntAlu     11575705     71.43%     71.43% # Class of committed instruction
system.switch_cpus.commit.op_class_0::IntMult            0      0.00%     71.43% # Class of committed instruction
system.switch_cpus.commit.op_class_0::IntDiv            0      0.00%     71.43% # Class of committed instruction
system.switch_cpus.commit.op_class_0::FloatAdd            0      0.00%     71.43% # Class of committed instruction
system.switch_cpus.commit.op_class_0::FloatCmp            0      0.00%     71.43% # Class of committed instruction
system.switch_cpus.commit.op_class_0::FloatCvt            0      0.00%     71.43% # Class of committed instruction
system.switch_cpus.commit.op_class_0::FloatMult            0      0.00%     71.43% # Class of committed instruction
system.switch_cpus.commit.op_class_0::FloatMultAcc            0      0.00%     71.43% # Class of committed instruction
system.switch_cpus.commit.op_class_0::FloatDiv            0      0.00%     71.43% # Class of committed instruction
system.switch_cpus.commit.op_class_0::FloatMisc            0      0.00%     71.43% # Class of committed instruction
system.switch_cpus.commit.op_class_0::FloatSqrt            0      0.00%     71.43% # Class of committed instruction
system.switch_cpus.commit.op_class_0::SimdAdd            0      0.00%     71.43% # Class of committed instruction
system.switch_cpus.commit.op_class_0::SimdAddAcc            0      0.00%     71.43% # Class of committed instruction
system.switch_cpus.commit.op_class_0::SimdAlu            0      0.00%     71.43% # Class of committed instruction
system.switch_cpus.commit.op_class_0::SimdCmp            0      0.00%     71.43% # Class of committed instruction
system.switch_cpus.commit.op_class_0::SimdCvt            0      0.00%     71.43% # Class of committed instruction
system.switch_cpus.commit.op_class_0::SimdMisc            0      0.00%     71.43% # Class of committed instruction
system.switch_cpus.commit.op_class_0::SimdMult            0      0.00%     71.43% # Class of committed instruction
system.switch_cpus.commit.op_class_0::SimdMultAcc            0      0.00%     71.43% # Class of committed instruction
system.switch_cpus.commit.op_class_0::SimdShift            0      0.00%     71.43% # Class of committed instruction
system.switch_cpus.commit.op_class_0::SimdShiftAcc            0      0.00%     71.43% # Class of committed instruction
system.switch_cpus.commit.op_class_0::SimdDiv            0      0.00%     71.43% # Class of committed instruction
system.switch_cpus.commit.op_class_0::SimdSqrt            0      0.00%     71.43% # Class of committed instruction
system.switch_cpus.commit.op_class_0::SimdFloatAdd            0      0.00%     71.43% # Class of committed instruction
system.switch_cpus.commit.op_class_0::SimdFloatAlu            0      0.00%     71.43% # Class of committed instruction
system.switch_cpus.commit.op_class_0::SimdFloatCmp            0      0.00%     71.43% # Class of committed instruction
system.switch_cpus.commit.op_class_0::SimdFloatCvt            0      0.00%     71.43% # Class of committed instruction
system.switch_cpus.commit.op_class_0::SimdFloatDiv            0      0.00%     71.43% # Class of committed instruction
system.switch_cpus.commit.op_class_0::SimdFloatMisc            0      0.00%     71.43% # Class of committed instruction
system.switch_cpus.commit.op_class_0::SimdFloatMult            0      0.00%     71.43% # Class of committed instruction
system.switch_cpus.commit.op_class_0::SimdFloatMultAcc            0      0.00%     71.43% # Class of committed instruction
system.switch_cpus.commit.op_class_0::SimdFloatSqrt            0      0.00%     71.43% # Class of committed instruction
system.switch_cpus.commit.op_class_0::SimdReduceAdd            0      0.00%     71.43% # Class of committed instruction
system.switch_cpus.commit.op_class_0::SimdReduceAlu            0      0.00%     71.43% # Class of committed instruction
system.switch_cpus.commit.op_class_0::SimdReduceCmp            0      0.00%     71.43% # Class of committed instruction
system.switch_cpus.commit.op_class_0::SimdFloatReduceAdd            0      0.00%     71.43% # Class of committed instruction
system.switch_cpus.commit.op_class_0::SimdFloatReduceCmp            0      0.00%     71.43% # Class of committed instruction
system.switch_cpus.commit.op_class_0::SimdAes            0      0.00%     71.43% # Class of committed instruction
system.switch_cpus.commit.op_class_0::SimdAesMix            0      0.00%     71.43% # Class of committed instruction
system.switch_cpus.commit.op_class_0::SimdSha1Hash            0      0.00%     71.43% # Class of committed instruction
system.switch_cpus.commit.op_class_0::SimdSha1Hash2            0      0.00%     71.43% # Class of committed instruction
system.switch_cpus.commit.op_class_0::SimdSha256Hash            0      0.00%     71.43% # Class of committed instruction
system.switch_cpus.commit.op_class_0::SimdSha256Hash2            0      0.00%     71.43% # Class of committed instruction
system.switch_cpus.commit.op_class_0::SimdShaSigma2            0      0.00%     71.43% # Class of committed instruction
system.switch_cpus.commit.op_class_0::SimdShaSigma3            0      0.00%     71.43% # Class of committed instruction
system.switch_cpus.commit.op_class_0::SimdPredAlu            0      0.00%     71.43% # Class of committed instruction
system.switch_cpus.commit.op_class_0::MemRead      3567032     22.01%     93.45% # Class of committed instruction
system.switch_cpus.commit.op_class_0::MemWrite      1061813      6.55%    100.00% # Class of committed instruction
system.switch_cpus.commit.op_class_0::FloatMemRead            0      0.00%    100.00% # Class of committed instruction
system.switch_cpus.commit.op_class_0::FloatMemWrite            0      0.00%    100.00% # Class of committed instruction
system.switch_cpus.commit.op_class_0::IprAccess            0      0.00%    100.00% # Class of committed instruction
system.switch_cpus.commit.op_class_0::InstPrefetch            0      0.00%    100.00% # Class of committed instruction
system.switch_cpus.commit.op_class_0::total     16204550                       # Class of committed instruction
system.switch_cpus.commit.refs                4628845                       # Number of memory references committed
system.switch_cpus.commit.swp_count                 0                       # Number of s/w prefetches committed
system.switch_cpus.commit.vec_insts                 0                       # Number of committed Vector instructions.
system.switch_cpus.committedInsts            10000000                       # Number of Instructions Simulated
system.switch_cpus.committedOps              16204550                       # Number of Ops (including micro ops) Simulated
system.switch_cpus.cpi                      12.328660                       # CPI: Cycles Per Instruction
system.switch_cpus.cpi_total                12.328660                       # CPI: Total CPI of All Threads
system.switch_cpus.decode.BlockedCycles     117042680                       # Number of cycles decode is blocked
system.switch_cpus.decode.DecodedInsts       33141213                       # Number of instructions handled by decode
system.switch_cpus.decode.IdleCycles          1625932                       # Number of cycles decode is idle
system.switch_cpus.decode.RunCycles           2703653                       # Number of cycles decode is running
system.switch_cpus.decode.SquashCycles         176709                       # Number of cycles decode is squashing
system.switch_cpus.decode.UnblockCycles       1736335                       # Number of cycles decode is unblocking
system.switch_cpus.dtb.rdAccesses             4735722                       # TLB accesses on read requests
system.switch_cpus.dtb.rdMisses                 44506                       # TLB misses on read requests
system.switch_cpus.dtb.wrAccesses             1595852                       # TLB accesses on write requests
system.switch_cpus.dtb.wrMisses                  1612                       # TLB misses on write requests
system.switch_cpus.fetch.Branches             4377804                       # Number of branches that fetch encountered
system.switch_cpus.fetch.CacheLines           2977615                       # Number of cache lines fetched
system.switch_cpus.fetch.Cycles             120015576                       # Number of cycles fetch has run and was not squashing or blocked
system.switch_cpus.fetch.IcacheSquashes         19381                       # Number of outstanding Icache misses that were squashed
system.switch_cpus.fetch.Insts               24000522                       # Number of instructions fetch has processed
system.switch_cpus.fetch.MiscStallCycles            1                       # Number of cycles fetch has spent waiting on interrupts, or bad addresses, or out of MSHRs
system.switch_cpus.fetch.PendingTrapStallCycles         1354                       # Number of stall cycles due to pending traps
system.switch_cpus.fetch.SquashCycles          353418                       # Number of cycles fetch has spent squashing
system.switch_cpus.fetch.branchRate          0.035509                       # Number of branch fetches per cycle
system.switch_cpus.fetch.icacheStallCycles      3091678                       # Number of cycles fetch is stalled on an Icache miss
system.switch_cpus.fetch.predictedBranches      1615465                       # Number of branches that fetch has predicted taken
system.switch_cpus.fetch.rate                0.194673                       # Number of inst fetches per cycle
system.switch_cpus.fetch.rateDist::samples    123285318                       # Number of instructions fetched each cycle (Total)
system.switch_cpus.fetch.rateDist::mean      0.312003                       # Number of instructions fetched each cycle (Total)
system.switch_cpus.fetch.rateDist::stdev     1.434392                       # Number of instructions fetched each cycle (Total)
system.switch_cpus.fetch.rateDist::underflows            0      0.00%      0.00% # Number of instructions fetched each cycle (Total)
system.switch_cpus.fetch.rateDist::0        116991717     94.90%     94.90% # Number of instructions fetched each cycle (Total)
system.switch_cpus.fetch.rateDist::1           135015      0.11%     95.00% # Number of instructions fetched each cycle (Total)
system.switch_cpus.fetch.rateDist::2           607313      0.49%     95.50% # Number of instructions fetched each cycle (Total)
system.switch_cpus.fetch.rateDist::3           331990      0.27%     95.77% # Number of instructions fetched each cycle (Total)
system.switch_cpus.fetch.rateDist::4           490016      0.40%     96.16% # Number of instructions fetched each cycle (Total)
system.switch_cpus.fetch.rateDist::5           400959      0.33%     96.49% # Number of instructions fetched each cycle (Total)
system.switch_cpus.fetch.rateDist::6          1151878      0.93%     97.42% # Number of instructions fetched each cycle (Total)
system.switch_cpus.fetch.rateDist::7           167803      0.14%     97.56% # Number of instructions fetched each cycle (Total)
system.switch_cpus.fetch.rateDist::8          3008627      2.44%    100.00% # Number of instructions fetched each cycle (Total)
system.switch_cpus.fetch.rateDist::overflows            0      0.00%    100.00% # Number of instructions fetched each cycle (Total)
system.switch_cpus.fetch.rateDist::min_value            0                       # Number of instructions fetched each cycle (Total)
system.switch_cpus.fetch.rateDist::max_value            8                       # Number of instructions fetched each cycle (Total)
system.switch_cpus.fetch.rateDist::total    123285318                       # Number of instructions fetched each cycle (Total)
system.switch_cpus.fp_regfile_writes               56                       # number of floating regfile writes
system.switch_cpus.idleCycles                    1280                       # Total number of cycles that the CPU has spent unscheduled due to idling
system.switch_cpus.iew.branchMispredicts       189608                       # Number of branch mispredicts detected at execute
system.switch_cpus.iew.exec_branches          2339644                       # Number of branches executed
system.switch_cpus.iew.exec_nop                     0                       # number of nop insts executed
system.switch_cpus.iew.exec_rate             0.199198                       # Inst execution rate
system.switch_cpus.iew.exec_refs              6742751                       # number of memory reference insts executed
system.switch_cpus.iew.exec_stores            1595852                       # Number of stores executed
system.switch_cpus.iew.exec_swp                     0                       # number of swp insts executed
system.switch_cpus.iew.iewBlockCycles        85519909                       # Number of cycles IEW is blocking
system.switch_cpus.iew.iewDispLoadInsts       6830857                       # Number of dispatched load instructions
system.switch_cpus.iew.iewDispNonSpecInsts            0                       # Number of dispatched non-speculative instructions
system.switch_cpus.iew.iewDispSquashedInsts         5352                       # Number of squashed instructions skipped by dispatch
system.switch_cpus.iew.iewDispStoreInsts      2313424                       # Number of dispatched store instructions
system.switch_cpus.iew.iewDispatchedInsts     31536679                       # Number of instructions dispatched to IQ
system.switch_cpus.iew.iewExecLoadInsts       5146899                       # Number of load instructions executed
system.switch_cpus.iew.iewExecSquashedInsts       196391                       # Number of squashed instructions skipped in execute
system.switch_cpus.iew.iewExecutedInsts      24558501                       # Number of executed instructions
system.switch_cpus.iew.iewIQFullEvents         482224                       # Number of times the IQ has become full, causing a stall
system.switch_cpus.iew.iewIdleCycles                0                       # Number of cycles IEW is idle
system.switch_cpus.iew.iewLSQFullEvents       1042227                       # Number of times the LSQ has become full, causing a stall
system.switch_cpus.iew.iewSquashCycles         176709                       # Number of cycles IEW is squashing
system.switch_cpus.iew.iewUnblockCycles       2184501                       # Number of cycles IEW is unblocking
system.switch_cpus.iew.lsq.thread0.blockedLoads            0                       # Number of blocked loads due to partial load-store forwarding
system.switch_cpus.iew.lsq.thread0.cacheBlocked       201308                       # Number of times an access to memory failed due to the cache being blocked
system.switch_cpus.iew.lsq.thread0.forwLoads        38781                       # Number of loads that had data forwarded from stores
system.switch_cpus.iew.lsq.thread0.ignoredResponses           37                       # Number of memory responses ignored because the instruction is squashed
system.switch_cpus.iew.lsq.thread0.invAddrLoads            0                       # Number of loads ignored due to an invalid address
system.switch_cpus.iew.lsq.thread0.invAddrSwpfs            0                       # Number of software prefetches ignored due to an invalid address
system.switch_cpus.iew.lsq.thread0.memOrderViolation          246                       # Number of memory ordering violations
system.switch_cpus.iew.lsq.thread0.rescheduledLoads            0                       # Number of loads that were rescheduled
system.switch_cpus.iew.lsq.thread0.squashedLoads      3263800                       # Number of loads squashed
system.switch_cpus.iew.lsq.thread0.squashedStores      1251611                       # Number of stores squashed
system.switch_cpus.iew.memOrderViolationEvents          246                       # Number of memory order violations
system.switch_cpus.iew.predictedNotTakenIncorrect        94830                       # Number of branches that were predicted not taken incorrectly
system.switch_cpus.iew.predictedTakenIncorrect        94778                       # Number of branches that were predicted taken incorrectly
system.switch_cpus.iew.wb_consumers          27978492                       # num instructions consuming a value
system.switch_cpus.iew.wb_count              23852750                       # cumulative count of insts written-back
system.switch_cpus.iew.wb_fanout             0.631362                       # average fanout of values written-back
system.switch_cpus.iew.wb_producers          17664561                       # num instructions producing a value
system.switch_cpus.iew.wb_rate               0.193474                       # insts written-back per cycle
system.switch_cpus.iew.wb_sent               23864567                       # cumulative count of insts sent to commit
system.switch_cpus.int_regfile_reads         33260238                       # number of integer regfile reads
system.switch_cpus.int_regfile_writes        19912892                       # number of integer regfile writes
system.switch_cpus.ipc                       0.081112                       # IPC: Instructions Per Cycle
system.switch_cpus.ipc_total                 0.081112                       # IPC: Total IPC of All Threads
system.switch_cpus.iq.FU_type_0::No_OpClass        16214      0.07%      0.07% # Type of FU issued
system.switch_cpus.iq.FU_type_0::IntAlu      17898244     72.30%     72.37% # Type of FU issued
system.switch_cpus.iq.FU_type_0::IntMult         2394      0.01%     72.38% # Type of FU issued
system.switch_cpus.iq.FU_type_0::IntDiv             0      0.00%     72.38% # Type of FU issued
system.switch_cpus.iq.FU_type_0::FloatAdd            0      0.00%     72.38% # Type of FU issued
system.switch_cpus.iq.FU_type_0::FloatCmp            0      0.00%     72.38% # Type of FU issued
system.switch_cpus.iq.FU_type_0::FloatCvt            0      0.00%     72.38% # Type of FU issued
system.switch_cpus.iq.FU_type_0::FloatMult            0      0.00%     72.38% # Type of FU issued
system.switch_cpus.iq.FU_type_0::FloatMultAcc            0      0.00%     72.38% # Type of FU issued
system.switch_cpus.iq.FU_type_0::FloatDiv            0      0.00%     72.38% # Type of FU issued
system.switch_cpus.iq.FU_type_0::FloatMisc            0      0.00%     72.38% # Type of FU issued
system.switch_cpus.iq.FU_type_0::FloatSqrt            0      0.00%     72.38% # Type of FU issued
system.switch_cpus.iq.FU_type_0::SimdAdd            0      0.00%     72.38% # Type of FU issued
system.switch_cpus.iq.FU_type_0::SimdAddAcc            0      0.00%     72.38% # Type of FU issued
system.switch_cpus.iq.FU_type_0::SimdAlu            0      0.00%     72.38% # Type of FU issued
system.switch_cpus.iq.FU_type_0::SimdCmp            0      0.00%     72.38% # Type of FU issued
system.switch_cpus.iq.FU_type_0::SimdCvt            0      0.00%     72.38% # Type of FU issued
system.switch_cpus.iq.FU_type_0::SimdMisc            0      0.00%     72.38% # Type of FU issued
system.switch_cpus.iq.FU_type_0::SimdMult            0      0.00%     72.38% # Type of FU issued
system.switch_cpus.iq.FU_type_0::SimdMultAcc            0      0.00%     72.38% # Type of FU issued
system.switch_cpus.iq.FU_type_0::SimdShift            0      0.00%     72.38% # Type of FU issued
system.switch_cpus.iq.FU_type_0::SimdShiftAcc            0      0.00%     72.38% # Type of FU issued
system.switch_cpus.iq.FU_type_0::SimdDiv            0      0.00%     72.38% # Type of FU issued
system.switch_cpus.iq.FU_type_0::SimdSqrt            0      0.00%     72.38% # Type of FU issued
system.switch_cpus.iq.FU_type_0::SimdFloatAdd            0      0.00%     72.38% # Type of FU issued
system.switch_cpus.iq.FU_type_0::SimdFloatAlu            0      0.00%     72.38% # Type of FU issued
system.switch_cpus.iq.FU_type_0::SimdFloatCmp            0      0.00%     72.38% # Type of FU issued
system.switch_cpus.iq.FU_type_0::SimdFloatCvt            0      0.00%     72.38% # Type of FU issued
system.switch_cpus.iq.FU_type_0::SimdFloatDiv            0      0.00%     72.38% # Type of FU issued
system.switch_cpus.iq.FU_type_0::SimdFloatMisc            0      0.00%     72.38% # Type of FU issued
system.switch_cpus.iq.FU_type_0::SimdFloatMult            0      0.00%     72.38% # Type of FU issued
system.switch_cpus.iq.FU_type_0::SimdFloatMultAcc            0      0.00%     72.38% # Type of FU issued
system.switch_cpus.iq.FU_type_0::SimdFloatSqrt            0      0.00%     72.38% # Type of FU issued
system.switch_cpus.iq.FU_type_0::SimdReduceAdd            0      0.00%     72.38% # Type of FU issued
system.switch_cpus.iq.FU_type_0::SimdReduceAlu            0      0.00%     72.38% # Type of FU issued
system.switch_cpus.iq.FU_type_0::SimdReduceCmp            0      0.00%     72.38% # Type of FU issued
system.switch_cpus.iq.FU_type_0::SimdFloatReduceAdd            0      0.00%     72.38% # Type of FU issued
system.switch_cpus.iq.FU_type_0::SimdFloatReduceCmp            0      0.00%     72.38% # Type of FU issued
system.switch_cpus.iq.FU_type_0::SimdAes            0      0.00%     72.38% # Type of FU issued
system.switch_cpus.iq.FU_type_0::SimdAesMix            0      0.00%     72.38% # Type of FU issued
system.switch_cpus.iq.FU_type_0::SimdSha1Hash            0      0.00%     72.38% # Type of FU issued
system.switch_cpus.iq.FU_type_0::SimdSha1Hash2            0      0.00%     72.38% # Type of FU issued
system.switch_cpus.iq.FU_type_0::SimdSha256Hash            0      0.00%     72.38% # Type of FU issued
system.switch_cpus.iq.FU_type_0::SimdSha256Hash2            0      0.00%     72.38% # Type of FU issued
system.switch_cpus.iq.FU_type_0::SimdShaSigma2            0      0.00%     72.38% # Type of FU issued
system.switch_cpus.iq.FU_type_0::SimdShaSigma3            0      0.00%     72.38% # Type of FU issued
system.switch_cpus.iq.FU_type_0::SimdPredAlu            0      0.00%     72.38% # Type of FU issued
system.switch_cpus.iq.FU_type_0::MemRead      5175609     20.91%     93.28% # Type of FU issued
system.switch_cpus.iq.FU_type_0::MemWrite      1662432      6.72%    100.00% # Type of FU issued
system.switch_cpus.iq.FU_type_0::FloatMemRead            0      0.00%    100.00% # Type of FU issued
system.switch_cpus.iq.FU_type_0::FloatMemWrite            0      0.00%    100.00% # Type of FU issued
system.switch_cpus.iq.FU_type_0::IprAccess            0      0.00%    100.00% # Type of FU issued
system.switch_cpus.iq.FU_type_0::InstPrefetch            0      0.00%    100.00% # Type of FU issued
system.switch_cpus.iq.FU_type_0::total       24754893                       # Type of FU issued
system.switch_cpus.iq.fp_alu_accesses               0                       # Number of floating point alu accesses
system.switch_cpus.iq.fp_inst_queue_reads            0                       # Number of floating instruction queue reads
system.switch_cpus.iq.fp_inst_queue_wakeup_accesses            0                       # Number of floating instruction queue wakeup accesses
system.switch_cpus.iq.fp_inst_queue_writes            0                       # Number of floating instruction queue writes
system.switch_cpus.iq.fu_busy_cnt              272753                       # FU busy when requested
system.switch_cpus.iq.fu_busy_rate           0.011018                       # FU busy rate (busy events/executed inst)
system.switch_cpus.iq.fu_full::No_OpClass            0      0.00%      0.00% # attempts to use FU when none available
system.switch_cpus.iq.fu_full::IntAlu           65046     23.85%     23.85% # attempts to use FU when none available
system.switch_cpus.iq.fu_full::IntMult              0      0.00%     23.85% # attempts to use FU when none available
system.switch_cpus.iq.fu_full::IntDiv               0      0.00%     23.85% # attempts to use FU when none available
system.switch_cpus.iq.fu_full::FloatAdd             0      0.00%     23.85% # attempts to use FU when none available
system.switch_cpus.iq.fu_full::FloatCmp             0      0.00%     23.85% # attempts to use FU when none available
system.switch_cpus.iq.fu_full::FloatCvt             0      0.00%     23.85% # attempts to use FU when none available
system.switch_cpus.iq.fu_full::FloatMult            0      0.00%     23.85% # attempts to use FU when none available
system.switch_cpus.iq.fu_full::FloatMultAcc            0      0.00%     23.85% # attempts to use FU when none available
system.switch_cpus.iq.fu_full::FloatDiv             0      0.00%     23.85% # attempts to use FU when none available
system.switch_cpus.iq.fu_full::FloatMisc            0      0.00%     23.85% # attempts to use FU when none available
system.switch_cpus.iq.fu_full::FloatSqrt            0      0.00%     23.85% # attempts to use FU when none available
system.switch_cpus.iq.fu_full::SimdAdd              0      0.00%     23.85% # attempts to use FU when none available
system.switch_cpus.iq.fu_full::SimdAddAcc            0      0.00%     23.85% # attempts to use FU when none available
system.switch_cpus.iq.fu_full::SimdAlu              0      0.00%     23.85% # attempts to use FU when none available
system.switch_cpus.iq.fu_full::SimdCmp              0      0.00%     23.85% # attempts to use FU when none available
system.switch_cpus.iq.fu_full::SimdCvt              0      0.00%     23.85% # attempts to use FU when none available
system.switch_cpus.iq.fu_full::SimdMisc             0      0.00%     23.85% # attempts to use FU when none available
system.switch_cpus.iq.fu_full::SimdMult             0      0.00%     23.85% # attempts to use FU when none available
system.switch_cpus.iq.fu_full::SimdMultAcc            0      0.00%     23.85% # attempts to use FU when none available
system.switch_cpus.iq.fu_full::SimdShift            0      0.00%     23.85% # attempts to use FU when none available
system.switch_cpus.iq.fu_full::SimdShiftAcc            0      0.00%     23.85% # attempts to use FU when none available
system.switch_cpus.iq.fu_full::SimdDiv              0      0.00%     23.85% # attempts to use FU when none available
system.switch_cpus.iq.fu_full::SimdSqrt             0      0.00%     23.85% # attempts to use FU when none available
system.switch_cpus.iq.fu_full::SimdFloatAdd            0      0.00%     23.85% # attempts to use FU when none available
system.switch_cpus.iq.fu_full::SimdFloatAlu            0      0.00%     23.85% # attempts to use FU when none available
system.switch_cpus.iq.fu_full::SimdFloatCmp            0      0.00%     23.85% # attempts to use FU when none available
system.switch_cpus.iq.fu_full::SimdFloatCvt            0      0.00%     23.85% # attempts to use FU when none available
system.switch_cpus.iq.fu_full::SimdFloatDiv            0      0.00%     23.85% # attempts to use FU when none available
system.switch_cpus.iq.fu_full::SimdFloatMisc            0      0.00%     23.85% # attempts to use FU when none available
system.switch_cpus.iq.fu_full::SimdFloatMult            0      0.00%     23.85% # attempts to use FU when none available
system.switch_cpus.iq.fu_full::SimdFloatMultAcc            0      0.00%     23.85% # attempts to use FU when none available
system.switch_cpus.iq.fu_full::SimdFloatSqrt            0      0.00%     23.85% # attempts to use FU when none available
system.switch_cpus.iq.fu_full::SimdReduceAdd            0      0.00%     23.85% # attempts to use FU when none available
system.switch_cpus.iq.fu_full::SimdReduceAlu            0      0.00%     23.85% # attempts to use FU when none available
system.switch_cpus.iq.fu_full::SimdReduceCmp            0      0.00%     23.85% # attempts to use FU when none available
system.switch_cpus.iq.fu_full::SimdFloatReduceAdd            0      0.00%     23.85% # attempts to use FU when none available
system.switch_cpus.iq.fu_full::SimdFloatReduceCmp            0      0.00%     23.85% # attempts to use FU when none available
system.switch_cpus.iq.fu_full::SimdAes              0      0.00%     23.85% # attempts to use FU when none available
system.switch_cpus.iq.fu_full::SimdAesMix            0      0.00%     23.85% # attempts to use FU when none available
system.switch_cpus.iq.fu_full::SimdSha1Hash            0      0.00%     23.85% # attempts to use FU when none available
system.switch_cpus.iq.fu_full::SimdSha1Hash2            0      0.00%     23.85% # attempts to use FU when none available
system.switch_cpus.iq.fu_full::SimdSha256Hash            0      0.00%     23.85% # attempts to use FU when none available
system.switch_cpus.iq.fu_full::SimdSha256Hash2            0      0.00%     23.85% # attempts to use FU when none available
system.switch_cpus.iq.fu_full::SimdShaSigma2            0      0.00%     23.85% # attempts to use FU when none available
system.switch_cpus.iq.fu_full::SimdShaSigma3            0      0.00%     23.85% # attempts to use FU when none available
system.switch_cpus.iq.fu_full::SimdPredAlu            0      0.00%     23.85% # attempts to use FU when none available
system.switch_cpus.iq.fu_full::MemRead          69856     25.61%     49.46% # attempts to use FU when none available
system.switch_cpus.iq.fu_full::MemWrite        137851     50.54%    100.00% # attempts to use FU when none available
system.switch_cpus.iq.fu_full::FloatMemRead            0      0.00%    100.00% # attempts to use FU when none available
system.switch_cpus.iq.fu_full::FloatMemWrite            0      0.00%    100.00% # attempts to use FU when none available
system.switch_cpus.iq.fu_full::IprAccess            0      0.00%    100.00% # attempts to use FU when none available
system.switch_cpus.iq.fu_full::InstPrefetch            0      0.00%    100.00% # attempts to use FU when none available
system.switch_cpus.iq.int_alu_accesses       25011432                       # Number of integer alu accesses
system.switch_cpus.iq.int_inst_queue_reads    173088215                       # Number of integer instruction queue reads
system.switch_cpus.iq.int_inst_queue_wakeup_accesses     23852750                       # Number of integer instruction queue wakeup accesses
system.switch_cpus.iq.int_inst_queue_writes     46868958                       # Number of integer instruction queue writes
system.switch_cpus.iq.iqInstsAdded           31536679                       # Number of instructions added to the IQ (excludes non-spec)
system.switch_cpus.iq.iqInstsIssued          24754893                       # Number of instructions issued
system.switch_cpus.iq.iqSquashedInstsExamined     15332043                       # Number of squashed instructions iterated over during squash; mainly for profiling
system.switch_cpus.iq.iqSquashedInstsIssued        20359                       # Number of squashed instructions issued
system.switch_cpus.iq.iqSquashedOperandsExamined     27080753                       # Number of squashed operands that are examined and possibly removed from graph
system.switch_cpus.iq.issued_per_cycle::samples    123285318                       # Number of insts issued each cycle
system.switch_cpus.iq.issued_per_cycle::mean     0.200794                       # Number of insts issued each cycle
system.switch_cpus.iq.issued_per_cycle::stdev     0.780265                       # Number of insts issued each cycle
system.switch_cpus.iq.issued_per_cycle::underflows            0      0.00%      0.00% # Number of insts issued each cycle
system.switch_cpus.iq.issued_per_cycle::0    111736140     90.63%     90.63% # Number of insts issued each cycle
system.switch_cpus.iq.issued_per_cycle::1      5594808      4.54%     95.17% # Number of insts issued each cycle
system.switch_cpus.iq.issued_per_cycle::2      2538751      2.06%     97.23% # Number of insts issued each cycle
system.switch_cpus.iq.issued_per_cycle::3      1550355      1.26%     98.49% # Number of insts issued each cycle
system.switch_cpus.iq.issued_per_cycle::4       828472      0.67%     99.16% # Number of insts issued each cycle
system.switch_cpus.iq.issued_per_cycle::5       454304      0.37%     99.53% # Number of insts issued each cycle
system.switch_cpus.iq.issued_per_cycle::6       319936      0.26%     99.79% # Number of insts issued each cycle
system.switch_cpus.iq.issued_per_cycle::7       173922      0.14%     99.93% # Number of insts issued each cycle
system.switch_cpus.iq.issued_per_cycle::8        88630      0.07%    100.00% # Number of insts issued each cycle
system.switch_cpus.iq.issued_per_cycle::overflows            0      0.00%    100.00% # Number of insts issued each cycle
system.switch_cpus.iq.issued_per_cycle::min_value            0                       # Number of insts issued each cycle
system.switch_cpus.iq.issued_per_cycle::max_value            8                       # Number of insts issued each cycle
system.switch_cpus.iq.issued_per_cycle::total    123285318                       # Number of insts issued each cycle
system.switch_cpus.iq.rate                   0.200791                       # Inst issue rate
system.switch_cpus.iq.vec_alu_accesses              0                       # Number of vector alu accesses
system.switch_cpus.iq.vec_inst_queue_reads            0                       # Number of vector instruction queue reads
system.switch_cpus.iq.vec_inst_queue_wakeup_accesses            0                       # Number of vector instruction queue wakeup accesses
system.switch_cpus.iq.vec_inst_queue_writes            0                       # Number of vector instruction queue writes
system.switch_cpus.itb.rdAccesses                   0                       # TLB accesses on read requests
system.switch_cpus.itb.rdMisses                     0                       # TLB misses on read requests
system.switch_cpus.itb.wrAccesses             2977829                       # TLB accesses on write requests
system.switch_cpus.itb.wrMisses                   216                       # TLB misses on write requests
system.switch_cpus.memDep0.conflictingLoads       413822                       # Number of conflicting loads.
system.switch_cpus.memDep0.conflictingStores       591807                       # Number of conflicting stores.
system.switch_cpus.memDep0.insertedLoads      6830857                       # Number of loads inserted to the mem dependence unit.
system.switch_cpus.memDep0.insertedStores      2313424                       # Number of stores inserted to the mem dependence unit.
system.switch_cpus.misc_regfile_reads        12659217                       # number of misc regfile reads
system.switch_cpus.misc_regfile_writes              1                       # number of misc regfile writes
system.switch_cpus.numCycles                123286598                       # number of cpu cycles simulated
system.switch_cpus.numWorkItemsCompleted            0                       # number of work items this cpu completed
system.switch_cpus.numWorkItemsStarted              0                       # number of work items this cpu started
system.switch_cpus.rename.BlockCycles       108600804                       # Number of cycles rename is blocking
system.switch_cpus.rename.CommittedMaps      20622243                       # Number of HB maps that are committed
system.switch_cpus.rename.IQFullEvents        5932828                       # Number of times rename has blocked due to IQ full
system.switch_cpus.rename.IdleCycles          2104582                       # Number of cycles rename is idle
system.switch_cpus.rename.LQFullEvents         705161                       # Number of times rename has blocked due to LQ full
system.switch_cpus.rename.ROBFullEvents        165248                       # Number of times rename has blocked due to ROB full
system.switch_cpus.rename.RenameLookups      85865900                       # Number of register rename lookups that rename has made
system.switch_cpus.rename.RenamedInsts       32297118                       # Number of instructions processed by rename
system.switch_cpus.rename.RenamedOperands     40775893                       # Number of destination operands rename has renamed
system.switch_cpus.rename.RunCycles           3556258                       # Number of cycles rename is running
system.switch_cpus.rename.SQFullEvents        2254196                       # Number of times rename has blocked due to SQ full
system.switch_cpus.rename.SquashCycles         176709                       # Number of cycles rename is squashing
system.switch_cpus.rename.UnblockCycles       8846956                       # Number of cycles rename is unblocking
system.switch_cpus.rename.UndoneMaps         20153531                       # Number of HB maps that are undone due to squashing
system.switch_cpus.rename.int_rename_lookups     48884757                       # Number of integer rename lookups
system.switch_cpus.rename.serializeStallCycles            0                       # count of cycles rename stalled for serializing inst
system.switch_cpus.rename.serializingInsts            0                       # count of serializing insts renamed
system.switch_cpus.rename.skidInsts          11044991                       # count of insts added to the skid buffer
system.switch_cpus.rename.tempSerializingInsts            0                       # count of temporary serializing insts renamed
system.switch_cpus.rob.rob_reads            152123465                       # The number of ROB reads
system.switch_cpus.rob.rob_writes            65198955                       # The number of ROB writes
system.switch_cpus.timesIdled                      21                       # Number of times that the entire CPU went into an idle state and unscheduled itself
system.tol2bus.snoop_filter.hit_multi_requests            0                       # Number of requests hitting in the snoop filter with multiple (>1) holders of the requested data.
system.tol2bus.snoop_filter.hit_multi_snoops            0                       # Number of snoops hitting in the snoop filter with multiple (>1) holders of the requested data.
system.tol2bus.snoop_filter.hit_single_requests      2091118                       # Number of requests hitting in the snoop filter with a single holder of the requested data.
system.tol2bus.snoop_filter.hit_single_snoops      1425027                       # Number of snoops hitting in the snoop filter with a single holder of the requested data.
system.tol2bus.snoop_filter.tot_requests      4183279                       # Total number of requests made to the snoop filter.
system.tol2bus.snoop_filter.tot_snoops        1425027                       # Total number of snoops made to the snoop filter.
system.membus.pwrStateResidencyTicks::UNDEFINED 92842738736000                       # Cumulative time (in ticks) in various power states
system.membus.trans_dist::ReadResp            1455133                       # Transaction distribution
system.membus.trans_dist::WritebackDirty       138403                       # Transaction distribution
system.membus.trans_dist::CleanEvict          1393599                       # Transaction distribution
system.membus.trans_dist::ReadExReq             79370                       # Transaction distribution
system.membus.trans_dist::ReadExResp            79370                       # Transaction distribution
system.membus.trans_dist::ReadSharedReq       1455133                       # Transaction distribution
system.membus.pkt_count_system.l2.mem_side::system.mem_ctrls.port      4601008                       # Packet count per connected master and slave (bytes)
system.membus.pkt_count_system.l2.mem_side::total      4601008                       # Packet count per connected master and slave (bytes)
system.membus.pkt_count::total                4601008                       # Packet count per connected master and slave (bytes)
system.membus.pkt_size_system.l2.mem_side::system.mem_ctrls.port    107065984                       # Cumulative packet size per connected master and slave (bytes)
system.membus.pkt_size_system.l2.mem_side::total    107065984                       # Cumulative packet size per connected master and slave (bytes)
system.membus.pkt_size::total               107065984                       # Cumulative packet size per connected master and slave (bytes)
system.membus.snoops                                0                       # Total snoops (count)
system.membus.snoopTraffic                          0                       # Total snoop traffic (bytes)
system.membus.snoop_fanout::samples           1534503                       # Request fanout histogram
system.membus.snoop_fanout::mean                    0                       # Request fanout histogram
system.membus.snoop_fanout::stdev                   0                       # Request fanout histogram
system.membus.snoop_fanout::underflows              0      0.00%      0.00% # Request fanout histogram
system.membus.snoop_fanout::0                 1534503    100.00%    100.00% # Request fanout histogram
system.membus.snoop_fanout::1                       0      0.00%    100.00% # Request fanout histogram
system.membus.snoop_fanout::overflows               0      0.00%    100.00% # Request fanout histogram
system.membus.snoop_fanout::min_value               0                       # Request fanout histogram
system.membus.snoop_fanout::max_value               0                       # Request fanout histogram
system.membus.snoop_fanout::total             1534503                       # Request fanout histogram
system.membus.reqLayer2.occupancy          4046095000                       # Layer occupancy (ticks)
system.membus.reqLayer2.utilization               6.6                       # Layer utilization (%)
system.membus.respLayer1.occupancy         8015615250                       # Layer occupancy (ticks)
system.membus.respLayer1.utilization             13.0                       # Layer utilization (%)
system.switch_cpus.pwrStateResidencyTicks::OFF  61643309750                       # Cumulative time (in ticks) in various power states
system.switch_cpus.dtb.walker.pwrStateResidencyTicks::UNDEFINED 92842738736000                       # Cumulative time (in ticks) in various power states
system.switch_cpus.itb.walker.pwrStateResidencyTicks::UNDEFINED 92842738736000                       # Cumulative time (in ticks) in various power states
system.tol2bus.pwrStateResidencyTicks::UNDEFINED 92842738736000                       # Cumulative time (in ticks) in various power states
system.tol2bus.trans_dist::ReadResp           2012425                       # Transaction distribution
system.tol2bus.trans_dist::WritebackDirty       278853                       # Transaction distribution
system.tol2bus.trans_dist::CleanEvict         3479795                       # Transaction distribution
system.tol2bus.trans_dist::ReadExReq            79735                       # Transaction distribution
system.tol2bus.trans_dist::ReadExResp           79735                       # Transaction distribution
system.tol2bus.trans_dist::ReadCleanReq            18                       # Transaction distribution
system.tol2bus.trans_dist::ReadSharedReq      2012408                       # Transaction distribution
system.tol2bus.pkt_count_system.cpu.icache.mem_side::system.l2.cpu_side           36                       # Packet count per connected master and slave (bytes)
system.tol2bus.pkt_count_system.cpu.dcache.mem_side::system.l2.cpu_side      6275403                       # Packet count per connected master and slave (bytes)
system.tol2bus.pkt_count::total               6275439                       # Packet count per connected master and slave (bytes)
system.tol2bus.pkt_size_system.cpu.icache.mem_side::system.l2.cpu_side         1152                       # Cumulative packet size per connected master and slave (bytes)
system.tol2bus.pkt_size_system.cpu.dcache.mem_side::system.l2.cpu_side    142885888                       # Cumulative packet size per connected master and slave (bytes)
system.tol2bus.pkt_size::total              142887040                       # Cumulative packet size per connected master and slave (bytes)
system.tol2bus.snoops                         1667530                       # Total snoops (count)
system.tol2bus.snoopTraffic                   8857792                       # Total snoop traffic (bytes)
system.tol2bus.snoop_fanout::samples          3759691                       # Request fanout histogram
system.tol2bus.snoop_fanout::mean            0.379028                       # Request fanout histogram
system.tol2bus.snoop_fanout::stdev           0.485145                       # Request fanout histogram
system.tol2bus.snoop_fanout::underflows             0      0.00%      0.00% # Request fanout histogram
system.tol2bus.snoop_fanout::0                2334664     62.10%     62.10% # Request fanout histogram
system.tol2bus.snoop_fanout::1                1425027     37.90%    100.00% # Request fanout histogram
system.tol2bus.snoop_fanout::2                      0      0.00%    100.00% # Request fanout histogram
system.tol2bus.snoop_fanout::3                      0      0.00%    100.00% # Request fanout histogram
system.tol2bus.snoop_fanout::4                      0      0.00%    100.00% # Request fanout histogram
system.tol2bus.snoop_fanout::overflows              0      0.00%    100.00% # Request fanout histogram
system.tol2bus.snoop_fanout::min_value              0                       # Request fanout histogram
system.tol2bus.snoop_fanout::max_value              1                       # Request fanout histogram
system.tol2bus.snoop_fanout::total            3759691                       # Request fanout histogram
system.tol2bus.reqLayer0.occupancy         2232087500                       # Layer occupancy (ticks)
system.tol2bus.reqLayer0.utilization              3.6                       # Layer utilization (%)
system.tol2bus.respLayer1.occupancy        3138208500                       # Layer occupancy (ticks)
system.tol2bus.respLayer1.utilization             5.1                       # Layer utilization (%)
system.tol2bus.respLayer0.occupancy             25500                       # Layer occupancy (ticks)
system.tol2bus.respLayer0.utilization             0.0                       # Layer utilization (%)
system.voltage_domain.voltage                       1                       # Voltage in Volts
system.clk_domain.clock                          1000                       # Clock period in ticks
system.l2.pwrStateResidencyTicks::UNDEFINED 92842738736000                       # Cumulative time (in ticks) in various power states
system.l2.demand_hits::.switch_cpus.data       557658                       # number of demand (read+write) hits
system.l2.demand_hits::total                   557658                       # number of demand (read+write) hits
system.l2.overall_hits::.switch_cpus.data       557658                       # number of overall hits
system.l2.overall_hits::total                  557658                       # number of overall hits
system.l2.demand_misses::.cpu.inst                  1                       # number of demand (read+write) misses
system.l2.demand_misses::.cpu.data                  3                       # number of demand (read+write) misses
system.l2.demand_misses::.switch_cpus.inst           17                       # number of demand (read+write) misses
system.l2.demand_misses::.switch_cpus.data      1534482                       # number of demand (read+write) misses
system.l2.demand_misses::total                1534503                       # number of demand (read+write) misses
system.l2.overall_misses::.cpu.inst                 1                       # number of overall misses
system.l2.overall_misses::.cpu.data                 3                       # number of overall misses
system.l2.overall_misses::.switch_cpus.inst           17                       # number of overall misses
system.l2.overall_misses::.switch_cpus.data      1534482                       # number of overall misses
system.l2.overall_misses::total               1534503                       # number of overall misses
system.l2.demand_miss_latency::.switch_cpus.inst      1543000                       # number of demand (read+write) miss cycles
system.l2.demand_miss_latency::.switch_cpus.data 123507851500                       # number of demand (read+write) miss cycles
system.l2.demand_miss_latency::total     123509394500                       # number of demand (read+write) miss cycles
system.l2.overall_miss_latency::.switch_cpus.inst      1543000                       # number of overall miss cycles
system.l2.overall_miss_latency::.switch_cpus.data 123507851500                       # number of overall miss cycles
system.l2.overall_miss_latency::total    123509394500                       # number of overall miss cycles
system.l2.demand_accesses::.cpu.inst                1                       # number of demand (read+write) accesses
system.l2.demand_accesses::.cpu.data                3                       # number of demand (read+write) accesses
system.l2.demand_accesses::.switch_cpus.inst           17                       # number of demand (read+write) accesses
system.l2.demand_accesses::.switch_cpus.data      2092140                       # number of demand (read+write) accesses
system.l2.demand_accesses::total              2092161                       # number of demand (read+write) accesses
system.l2.overall_accesses::.cpu.inst               1                       # number of overall (read+write) accesses
system.l2.overall_accesses::.cpu.data               3                       # number of overall (read+write) accesses
system.l2.overall_accesses::.switch_cpus.inst           17                       # number of overall (read+write) accesses
system.l2.overall_accesses::.switch_cpus.data      2092140                       # number of overall (read+write) accesses
system.l2.overall_accesses::total             2092161                       # number of overall (read+write) accesses
system.l2.demand_miss_rate::.cpu.inst               1                       # miss rate for demand accesses
system.l2.demand_miss_rate::.cpu.data               1                       # miss rate for demand accesses
system.l2.demand_miss_rate::.switch_cpus.inst            1                       # miss rate for demand accesses
system.l2.demand_miss_rate::.switch_cpus.data     0.733451                       # miss rate for demand accesses
system.l2.demand_miss_rate::total            0.733454                       # miss rate for demand accesses
system.l2.overall_miss_rate::.cpu.inst              1                       # miss rate for overall accesses
system.l2.overall_miss_rate::.cpu.data              1                       # miss rate for overall accesses
system.l2.overall_miss_rate::.switch_cpus.inst            1                       # miss rate for overall accesses
system.l2.overall_miss_rate::.switch_cpus.data     0.733451                       # miss rate for overall accesses
system.l2.overall_miss_rate::total           0.733454                       # miss rate for overall accesses
system.l2.demand_avg_miss_latency::.switch_cpus.inst 90764.705882                       # average overall miss latency
system.l2.demand_avg_miss_latency::.switch_cpus.data 80488.302567                       # average overall miss latency
system.l2.demand_avg_miss_latency::total 80488.206605                       # average overall miss latency
system.l2.overall_avg_miss_latency::.switch_cpus.inst 90764.705882                       # average overall miss latency
system.l2.overall_avg_miss_latency::.switch_cpus.data 80488.302567                       # average overall miss latency
system.l2.overall_avg_miss_latency::total 80488.206605                       # average overall miss latency
system.l2.blocked_cycles::no_mshrs                  0                       # number of cycles access was blocked
system.l2.blocked_cycles::no_targets                0                       # number of cycles access was blocked
system.l2.blocked::no_mshrs                         0                       # number of cycles access was blocked
system.l2.blocked::no_targets                       0                       # number of cycles access was blocked
system.l2.avg_blocked_cycles::no_mshrs            nan                       # average number of cycles each access was blocked
system.l2.avg_blocked_cycles::no_targets          nan                       # average number of cycles each access was blocked
system.l2.writebacks::.writebacks              138403                       # number of writebacks
system.l2.writebacks::total                    138403                       # number of writebacks
system.l2.demand_mshr_misses::.switch_cpus.inst           17                       # number of demand (read+write) MSHR misses
system.l2.demand_mshr_misses::.switch_cpus.data      1534482                       # number of demand (read+write) MSHR misses
system.l2.demand_mshr_misses::total           1534499                       # number of demand (read+write) MSHR misses
system.l2.overall_mshr_misses::.switch_cpus.inst           17                       # number of overall MSHR misses
system.l2.overall_mshr_misses::.switch_cpus.data      1534482                       # number of overall MSHR misses
system.l2.overall_mshr_misses::total          1534499                       # number of overall MSHR misses
system.l2.demand_mshr_miss_latency::.switch_cpus.inst      1373000                       # number of demand (read+write) MSHR miss cycles
system.l2.demand_mshr_miss_latency::.switch_cpus.data 108163031500                       # number of demand (read+write) MSHR miss cycles
system.l2.demand_mshr_miss_latency::total 108164404500                       # number of demand (read+write) MSHR miss cycles
system.l2.overall_mshr_miss_latency::.switch_cpus.inst      1373000                       # number of overall MSHR miss cycles
system.l2.overall_mshr_miss_latency::.switch_cpus.data 108163031500                       # number of overall MSHR miss cycles
system.l2.overall_mshr_miss_latency::total 108164404500                       # number of overall MSHR miss cycles
system.l2.demand_mshr_miss_rate::.switch_cpus.inst            1                       # mshr miss rate for demand accesses
system.l2.demand_mshr_miss_rate::.switch_cpus.data     0.733451                       # mshr miss rate for demand accesses
system.l2.demand_mshr_miss_rate::total       0.733452                       # mshr miss rate for demand accesses
system.l2.overall_mshr_miss_rate::.switch_cpus.inst            1                       # mshr miss rate for overall accesses
system.l2.overall_mshr_miss_rate::.switch_cpus.data     0.733451                       # mshr miss rate for overall accesses
system.l2.overall_mshr_miss_rate::total      0.733452                       # mshr miss rate for overall accesses
system.l2.demand_avg_mshr_miss_latency::.switch_cpus.inst 80764.705882                       # average overall mshr miss latency
system.l2.demand_avg_mshr_miss_latency::.switch_cpus.data 70488.302567                       # average overall mshr miss latency
system.l2.demand_avg_mshr_miss_latency::total 70488.416415                       # average overall mshr miss latency
system.l2.overall_avg_mshr_miss_latency::.switch_cpus.inst 80764.705882                       # average overall mshr miss latency
system.l2.overall_avg_mshr_miss_latency::.switch_cpus.data 70488.302567                       # average overall mshr miss latency
system.l2.overall_avg_mshr_miss_latency::total 70488.416415                       # average overall mshr miss latency
system.l2.replacements                        1667530                       # number of replacements
system.l2.WritebackDirty_hits::.writebacks       140450                       # number of WritebackDirty hits
system.l2.WritebackDirty_hits::total           140450                       # number of WritebackDirty hits
system.l2.WritebackDirty_accesses::.writebacks       140450                       # number of WritebackDirty accesses(hits+misses)
system.l2.WritebackDirty_accesses::total       140450                       # number of WritebackDirty accesses(hits+misses)
system.l2.CleanEvict_mshr_misses::.writebacks      1289500                       # number of CleanEvict MSHR misses
system.l2.CleanEvict_mshr_misses::total       1289500                       # number of CleanEvict MSHR misses
system.l2.CleanEvict_mshr_miss_rate::.writebacks          inf                       # mshr miss rate for CleanEvict accesses
system.l2.CleanEvict_mshr_miss_rate::total          inf                       # mshr miss rate for CleanEvict accesses
system.l2.ReadExReq_hits::.switch_cpus.data          365                       # number of ReadExReq hits
system.l2.ReadExReq_hits::total                   365                       # number of ReadExReq hits
system.l2.ReadExReq_misses::.switch_cpus.data        79370                       # number of ReadExReq misses
system.l2.ReadExReq_misses::total               79370                       # number of ReadExReq misses
system.l2.ReadExReq_miss_latency::.switch_cpus.data   6804750500                       # number of ReadExReq miss cycles
system.l2.ReadExReq_miss_latency::total    6804750500                       # number of ReadExReq miss cycles
system.l2.ReadExReq_accesses::.switch_cpus.data        79735                       # number of ReadExReq accesses(hits+misses)
system.l2.ReadExReq_accesses::total             79735                       # number of ReadExReq accesses(hits+misses)
system.l2.ReadExReq_miss_rate::.switch_cpus.data     0.995422                       # miss rate for ReadExReq accesses
system.l2.ReadExReq_miss_rate::total         0.995422                       # miss rate for ReadExReq accesses
system.l2.ReadExReq_avg_miss_latency::.switch_cpus.data 85734.540758                       # average ReadExReq miss latency
system.l2.ReadExReq_avg_miss_latency::total 85734.540758                       # average ReadExReq miss latency
system.l2.ReadExReq_mshr_misses::.switch_cpus.data        79370                       # number of ReadExReq MSHR misses
system.l2.ReadExReq_mshr_misses::total          79370                       # number of ReadExReq MSHR misses
system.l2.ReadExReq_mshr_miss_latency::.switch_cpus.data   6011050500                       # number of ReadExReq MSHR miss cycles
system.l2.ReadExReq_mshr_miss_latency::total   6011050500                       # number of ReadExReq MSHR miss cycles
system.l2.ReadExReq_mshr_miss_rate::.switch_cpus.data     0.995422                       # mshr miss rate for ReadExReq accesses
system.l2.ReadExReq_mshr_miss_rate::total     0.995422                       # mshr miss rate for ReadExReq accesses
system.l2.ReadExReq_avg_mshr_miss_latency::.switch_cpus.data 75734.540758                       # average ReadExReq mshr miss latency
system.l2.ReadExReq_avg_mshr_miss_latency::total 75734.540758                       # average ReadExReq mshr miss latency
system.l2.ReadCleanReq_misses::.cpu.inst            1                       # number of ReadCleanReq misses
system.l2.ReadCleanReq_misses::.switch_cpus.inst           17                       # number of ReadCleanReq misses
system.l2.ReadCleanReq_misses::total               18                       # number of ReadCleanReq misses
system.l2.ReadCleanReq_miss_latency::.switch_cpus.inst      1543000                       # number of ReadCleanReq miss cycles
system.l2.ReadCleanReq_miss_latency::total      1543000                       # number of ReadCleanReq miss cycles
system.l2.ReadCleanReq_accesses::.cpu.inst            1                       # number of ReadCleanReq accesses(hits+misses)
system.l2.ReadCleanReq_accesses::.switch_cpus.inst           17                       # number of ReadCleanReq accesses(hits+misses)
system.l2.ReadCleanReq_accesses::total             18                       # number of ReadCleanReq accesses(hits+misses)
system.l2.ReadCleanReq_miss_rate::.cpu.inst            1                       # miss rate for ReadCleanReq accesses
system.l2.ReadCleanReq_miss_rate::.switch_cpus.inst            1                       # miss rate for ReadCleanReq accesses
system.l2.ReadCleanReq_miss_rate::total             1                       # miss rate for ReadCleanReq accesses
system.l2.ReadCleanReq_avg_miss_latency::.switch_cpus.inst 90764.705882                       # average ReadCleanReq miss latency
system.l2.ReadCleanReq_avg_miss_latency::total 85722.222222                       # average ReadCleanReq miss latency
system.l2.ReadCleanReq_mshr_misses::.switch_cpus.inst           17                       # number of ReadCleanReq MSHR misses
system.l2.ReadCleanReq_mshr_misses::total           17                       # number of ReadCleanReq MSHR misses
system.l2.ReadCleanReq_mshr_miss_latency::.switch_cpus.inst      1373000                       # number of ReadCleanReq MSHR miss cycles
system.l2.ReadCleanReq_mshr_miss_latency::total      1373000                       # number of ReadCleanReq MSHR miss cycles
system.l2.ReadCleanReq_mshr_miss_rate::.switch_cpus.inst            1                       # mshr miss rate for ReadCleanReq accesses
system.l2.ReadCleanReq_mshr_miss_rate::total     0.944444                       # mshr miss rate for ReadCleanReq accesses
system.l2.ReadCleanReq_avg_mshr_miss_latency::.switch_cpus.inst 80764.705882                       # average ReadCleanReq mshr miss latency
system.l2.ReadCleanReq_avg_mshr_miss_latency::total 80764.705882                       # average ReadCleanReq mshr miss latency
system.l2.ReadSharedReq_hits::.switch_cpus.data       557293                       # number of ReadSharedReq hits
system.l2.ReadSharedReq_hits::total            557293                       # number of ReadSharedReq hits
system.l2.ReadSharedReq_misses::.cpu.data            3                       # number of ReadSharedReq misses
[...]
system.cpu.icache.tags.data_accesses         22117398                       # Number of data accesses
system.cpu.dtb.walker.pwrStateResidencyTicks::UNDEFINED 93018967670000                       # Cumulative time (in ticks) in various power states
system.cpu.interrupts.clk_domain.clock           8000                       # Clock period in ticks
system.cpu.itb_walker_cache.pwrStateResidencyTicks::UNDEFINED 93018967670000                       # Cumulative time (in ticks) in various power states
system.cpu.itb_walker_cache.blocked_cycles::no_mshrs            0                       # number of cycles access was blocked
system.cpu.itb_walker_cache.blocked_cycles::no_targets            0                       # number of cycles access was blocked
system.cpu.itb_walker_cache.blocked::no_mshrs            0                       # number of cycles access was blocked
system.cpu.itb_walker_cache.blocked::no_targets            0                       # number of cycles access was blocked
system.cpu.itb_walker_cache.avg_blocked_cycles::no_mshrs          nan                       # average number of cycles each access was blocked
system.cpu.itb_walker_cache.avg_blocked_cycles::no_targets          nan                       # average number of cycles each access was blocked
system.cpu.itb_walker_cache.replacements            0                       # number of replacements
system.cpu.itb_walker_cache.tags.pwrStateResidencyTicks::UNDEFINED 93018967670000                       # Cumulative time (in ticks) in various power states
system.cpu.itb_walker_cache.tags.tagsinuse            0                       # Cycle average of tags in use
system.cpu.itb_walker_cache.tags.total_refs            0                       # Total number of references to valid blocks.
system.cpu.itb_walker_cache.tags.sampled_refs            0                       # Sample count of references to valid blocks.
system.cpu.itb_walker_cache.tags.avg_refs          nan                       # Average number of references to valid blocks.
system.cpu.itb_walker_cache.tags.warmup_cycle            0                       # Cycle when the warmup percentage was hit.
system.cpu.itb_walker_cache.tags.tag_accesses            0                       # Number of tag accesses
system.cpu.itb_walker_cache.tags.data_accesses            0                       # Number of data accesses
system.cpu.itb.walker.pwrStateResidencyTicks::UNDEFINED 93018967670000                       # Cumulative time (in ticks) in various power states
system.cpu.dtb_walker_cache.pwrStateResidencyTicks::UNDEFINED 93018967670000                       # Cumulative time (in ticks) in various power states
system.cpu.dtb_walker_cache.blocked_cycles::no_mshrs            0                       # number of cycles access was blocked
system.cpu.dtb_walker_cache.blocked_cycles::no_targets            0                       # number of cycles access was blocked
system.cpu.dtb_walker_cache.blocked::no_mshrs            0                       # number of cycles access was blocked
system.cpu.dtb_walker_cache.blocked::no_targets            0                       # number of cycles access was blocked
system.cpu.dtb_walker_cache.avg_blocked_cycles::no_mshrs          nan                       # average number of cycles each access was blocked
system.cpu.dtb_walker_cache.avg_blocked_cycles::no_targets          nan                       # average number of cycles each access was blocked
system.cpu.dtb_walker_cache.replacements            0                       # number of replacements
system.cpu.dtb_walker_cache.tags.pwrStateResidencyTicks::UNDEFINED 93018967670000                       # Cumulative time (in ticks) in various power states
system.cpu.dtb_walker_cache.tags.tagsinuse            0                       # Cycle average of tags in use
system.cpu.dtb_walker_cache.tags.total_refs            0                       # Total number of references to valid blocks.
system.cpu.dtb_walker_cache.tags.sampled_refs            0                       # Sample count of references to valid blocks.
system.cpu.dtb_walker_cache.tags.avg_refs          nan                       # Average number of references to valid blocks.
system.cpu.dtb_walker_cache.tags.warmup_cycle            0                       # Cycle when the warmup percentage was hit.
system.cpu.dtb_walker_cache.tags.tag_accesses            0                       # Number of tag accesses
system.cpu.dtb_walker_cache.tags.data_accesses            0                       # Number of data accesses
system.cpu.dcache.pwrStateResidencyTicks::UNDEFINED 93018967670000                       # Cumulative time (in ticks) in various power states
system.cpu.dcache.demand_hits::.cpu.data            1                       # number of demand (read+write) hits
system.cpu.dcache.demand_hits::.switch_cpus.data     13277019                       # number of demand (read+write) hits
system.cpu.dcache.demand_hits::total         13277020                       # number of demand (read+write) hits
system.cpu.dcache.overall_hits::.cpu.data            1                       # number of overall hits
system.cpu.dcache.overall_hits::.switch_cpus.data     13277019                       # number of overall hits
system.cpu.dcache.overall_hits::total        13277020                       # number of overall hits
system.cpu.dcache.demand_misses::.cpu.data            3                       # number of demand (read+write) misses
system.cpu.dcache.demand_misses::.switch_cpus.data      8955092                       # number of demand (read+write) misses
system.cpu.dcache.demand_misses::total        8955095                       # number of demand (read+write) misses
system.cpu.dcache.overall_misses::.cpu.data            3                       # number of overall misses
system.cpu.dcache.overall_misses::.switch_cpus.data      8955092                       # number of overall misses
system.cpu.dcache.overall_misses::total       8955095                       # number of overall misses
system.cpu.dcache.demand_miss_latency::.switch_cpus.data 600414846984                       # number of demand (read+write) miss cycles
system.cpu.dcache.demand_miss_latency::total 600414846984                       # number of demand (read+write) miss cycles
system.cpu.dcache.overall_miss_latency::.switch_cpus.data 600414846984                       # number of overall miss cycles
system.cpu.dcache.overall_miss_latency::total 600414846984                       # number of overall miss cycles
system.cpu.dcache.demand_accesses::.cpu.data            4                       # number of demand (read+write) accesses
system.cpu.dcache.demand_accesses::.switch_cpus.data     22232111                       # number of demand (read+write) accesses
system.cpu.dcache.demand_accesses::total     22232115                       # number of demand (read+write) accesses
system.cpu.dcache.overall_accesses::.cpu.data            4                       # number of overall (read+write) accesses
system.cpu.dcache.overall_accesses::.switch_cpus.data     22232111                       # number of overall (read+write) accesses
system.cpu.dcache.overall_accesses::total     22232115                       # number of overall (read+write) accesses
system.cpu.dcache.demand_miss_rate::.cpu.data     0.750000                       # miss rate for demand accesses
system.cpu.dcache.demand_miss_rate::.switch_cpus.data     0.402800                       # miss rate for demand accesses
system.cpu.dcache.demand_miss_rate::total     0.402800                       # miss rate for demand accesses
system.cpu.dcache.overall_miss_rate::.cpu.data     0.750000                       # miss rate for overall accesses
system.cpu.dcache.overall_miss_rate::.switch_cpus.data     0.402800                       # miss rate for overall accesses
system.cpu.dcache.overall_miss_rate::total     0.402800                       # miss rate for overall accesses
system.cpu.dcache.demand_avg_miss_latency::.switch_cpus.data 67047.311963                       # average overall miss latency
system.cpu.dcache.demand_avg_miss_latency::total 67047.289502                       # average overall miss latency
system.cpu.dcache.overall_avg_miss_latency::.switch_cpus.data 67047.311963                       # average overall miss latency
system.cpu.dcache.overall_avg_miss_latency::total 67047.289502                       # average overall miss latency
system.cpu.dcache.blocked_cycles::no_mshrs     46620474                       # number of cycles access was blocked
system.cpu.dcache.blocked_cycles::no_targets            0                       # number of cycles access was blocked
system.cpu.dcache.blocked::no_mshrs           1383203                       # number of cycles access was blocked
system.cpu.dcache.blocked::no_targets               0                       # number of cycles access was blocked
system.cpu.dcache.avg_blocked_cycles::no_mshrs    33.704723                       # average number of cycles each access was blocked
system.cpu.dcache.avg_blocked_cycles::no_targets          nan                       # average number of cycles each access was blocked
system.cpu.dcache.writebacks::.writebacks       552179                       # number of writebacks
system.cpu.dcache.writebacks::total            552179                       # number of writebacks
system.cpu.dcache.demand_mshr_hits::.switch_cpus.data      1158554                       # number of demand (read+write) MSHR hits
system.cpu.dcache.demand_mshr_hits::total      1158554                       # number of demand (read+write) MSHR hits
system.cpu.dcache.overall_mshr_hits::.switch_cpus.data      1158554                       # number of overall MSHR hits
system.cpu.dcache.overall_mshr_hits::total      1158554                       # number of overall MSHR hits
system.cpu.dcache.demand_mshr_misses::.switch_cpus.data      7796538                       # number of demand (read+write) MSHR misses
system.cpu.dcache.demand_mshr_misses::total      7796538                       # number of demand (read+write) MSHR misses
system.cpu.dcache.overall_mshr_misses::.switch_cpus.data      7796538                       # number of overall MSHR misses
system.cpu.dcache.overall_mshr_misses::total      7796538                       # number of overall MSHR misses
system.cpu.dcache.demand_mshr_miss_latency::.switch_cpus.data 526187989486                       # number of demand (read+write) MSHR miss cycles
system.cpu.dcache.demand_mshr_miss_latency::total 526187989486                       # number of demand (read+write) MSHR miss cycles
system.cpu.dcache.overall_mshr_miss_latency::.switch_cpus.data 526187989486                       # number of overall MSHR miss cycles
system.cpu.dcache.overall_mshr_miss_latency::total 526187989486                       # number of overall MSHR miss cycles
system.cpu.dcache.demand_mshr_miss_rate::.switch_cpus.data     0.350688                       # mshr miss rate for demand accesses
system.cpu.dcache.demand_mshr_miss_rate::total     0.350688                       # mshr miss rate for demand accesses
system.cpu.dcache.overall_mshr_miss_rate::.switch_cpus.data     0.350688                       # mshr miss rate for overall accesses
system.cpu.dcache.overall_mshr_miss_rate::total     0.350688                       # mshr miss rate for overall accesses
system.cpu.dcache.demand_avg_mshr_miss_latency::.switch_cpus.data 67489.953808                       # average overall mshr miss latency
system.cpu.dcache.demand_avg_mshr_miss_latency::total 67489.953808                       # average overall mshr miss latency
system.cpu.dcache.overall_avg_mshr_miss_latency::.switch_cpus.data 67489.953808                       # average overall mshr miss latency
system.cpu.dcache.overall_avg_mshr_miss_latency::total 67489.953808                       # average overall mshr miss latency
system.cpu.dcache.replacements                7795514                       # number of replacements
system.cpu.dcache.ReadReq_hits::.cpu.data            1                       # number of ReadReq hits
system.cpu.dcache.ReadReq_hits::.switch_cpus.data      8964008                       # number of ReadReq hits
system.cpu.dcache.ReadReq_hits::total         8964009                       # number of ReadReq hits
system.cpu.dcache.ReadReq_misses::.cpu.data            3                       # number of ReadReq misses
system.cpu.dcache.ReadReq_misses::.switch_cpus.data      8655325                       # number of ReadReq misses
system.cpu.dcache.ReadReq_misses::total       8655328                       # number of ReadReq misses
system.cpu.dcache.ReadReq_miss_latency::.switch_cpus.data 573930760500                       # number of ReadReq miss cycles
system.cpu.dcache.ReadReq_miss_latency::total 573930760500                       # number of ReadReq miss cycles
system.cpu.dcache.ReadReq_accesses::.cpu.data            4                       # number of ReadReq accesses(hits+misses)
system.cpu.dcache.ReadReq_accesses::.switch_cpus.data     17619333                       # number of ReadReq accesses(hits+misses)
system.cpu.dcache.ReadReq_accesses::total     17619337                       # number of ReadReq accesses(hits+misses)
system.cpu.dcache.ReadReq_miss_rate::.cpu.data     0.750000                       # miss rate for ReadReq accesses
system.cpu.dcache.ReadReq_miss_rate::.switch_cpus.data     0.491240                       # miss rate for ReadReq accesses
system.cpu.dcache.ReadReq_miss_rate::total     0.491240                       # miss rate for ReadReq accesses
system.cpu.dcache.ReadReq_avg_miss_latency::.switch_cpus.data 66309.556314                       # average ReadReq miss latency
system.cpu.dcache.ReadReq_avg_miss_latency::total 66309.533330                       # average ReadReq miss latency
system.cpu.dcache.ReadReq_mshr_hits::.switch_cpus.data      1158535                       # number of ReadReq MSHR hits
system.cpu.dcache.ReadReq_mshr_hits::total      1158535                       # number of ReadReq MSHR hits
system.cpu.dcache.ReadReq_mshr_misses::.switch_cpus.data      7496790                       # number of ReadReq MSHR misses
system.cpu.dcache.ReadReq_mshr_misses::total      7496790                       # number of ReadReq MSHR misses
system.cpu.dcache.ReadReq_mshr_miss_latency::.switch_cpus.data 500004118000                       # number of ReadReq MSHR miss cycles
system.cpu.dcache.ReadReq_mshr_miss_latency::total 500004118000                       # number of ReadReq MSHR miss cycles
system.cpu.dcache.ReadReq_mshr_miss_rate::.switch_cpus.data     0.425487                       # mshr miss rate for ReadReq accesses
system.cpu.dcache.ReadReq_mshr_miss_rate::total     0.425486                       # mshr miss rate for ReadReq accesses
system.cpu.dcache.ReadReq_avg_mshr_miss_latency::.switch_cpus.data 66695.761519                       # average ReadReq mshr miss latency
system.cpu.dcache.ReadReq_avg_mshr_miss_latency::total 66695.761519                       # average ReadReq mshr miss latency
system.cpu.dcache.WriteReq_hits::.switch_cpus.data      4313011                       # number of WriteReq hits
system.cpu.dcache.WriteReq_hits::total        4313011                       # number of WriteReq hits
system.cpu.dcache.WriteReq_misses::.switch_cpus.data       299767                       # number of WriteReq misses
system.cpu.dcache.WriteReq_misses::total       299767                       # number of WriteReq misses
system.cpu.dcache.WriteReq_miss_latency::.switch_cpus.data  26484086484                       # number of WriteReq miss cycles
system.cpu.dcache.WriteReq_miss_latency::total  26484086484                       # number of WriteReq miss cycles
system.cpu.dcache.WriteReq_accesses::.switch_cpus.data      4612778                       # number of WriteReq accesses(hits+misses)
system.cpu.dcache.WriteReq_accesses::total      4612778                       # number of WriteReq accesses(hits+misses)
system.cpu.dcache.WriteReq_miss_rate::.switch_cpus.data     0.064986                       # miss rate for WriteReq accesses
system.cpu.dcache.WriteReq_miss_rate::total     0.064986                       # miss rate for WriteReq accesses
system.cpu.dcache.WriteReq_avg_miss_latency::.switch_cpus.data 88348.905930                       # average WriteReq miss latency
system.cpu.dcache.WriteReq_avg_miss_latency::total 88348.905930                       # average WriteReq miss latency
system.cpu.dcache.WriteReq_mshr_hits::.switch_cpus.data           19                       # number of WriteReq MSHR hits
system.cpu.dcache.WriteReq_mshr_hits::total           19                       # number of WriteReq MSHR hits
system.cpu.dcache.WriteReq_mshr_misses::.switch_cpus.data       299748                       # number of WriteReq MSHR misses
system.cpu.dcache.WriteReq_mshr_misses::total       299748                       # number of WriteReq MSHR misses
system.cpu.dcache.WriteReq_mshr_miss_latency::.switch_cpus.data  26183871486                       # number of WriteReq MSHR miss cycles
system.cpu.dcache.WriteReq_mshr_miss_latency::total  26183871486                       # number of WriteReq MSHR miss cycles
system.cpu.dcache.WriteReq_mshr_miss_rate::.switch_cpus.data     0.064982                       # mshr miss rate for WriteReq accesses
system.cpu.dcache.WriteReq_mshr_miss_rate::total     0.064982                       # mshr miss rate for WriteReq accesses
system.cpu.dcache.WriteReq_avg_mshr_miss_latency::.switch_cpus.data 87352.948096                       # average WriteReq mshr miss latency
system.cpu.dcache.WriteReq_avg_mshr_miss_latency::total 87352.948096                       # average WriteReq mshr miss latency
system.cpu.dcache.tags.pwrStateResidencyTicks::UNDEFINED 93018967670000                       # Cumulative time (in ticks) in various power states
system.cpu.dcache.tags.tagsinuse             2.618362                       # Cycle average of tags in use
system.cpu.dcache.tags.total_refs            21073558                       # Total number of references to valid blocks.
system.cpu.dcache.tags.sampled_refs           7796538                       # Sample count of references to valid blocks.
system.cpu.dcache.tags.avg_refs              2.702938                       # Average number of references to valid blocks.
system.cpu.dcache.tags.warmup_cycle      92781095431500                       # Cycle when the warmup percentage was hit.
system.cpu.dcache.tags.occ_blocks::.cpu.data     0.000002                       # Average occupied blocks per requestor
system.cpu.dcache.tags.occ_blocks::.switch_cpus.data     2.618360                       # Average occupied blocks per requestor
system.cpu.dcache.tags.occ_percent::.cpu.data     0.000000                       # Average percentage of cache occupancy
system.cpu.dcache.tags.occ_percent::.switch_cpus.data     0.002557                       # Average percentage of cache occupancy
system.cpu.dcache.tags.occ_percent::total     0.002557                       # Average percentage of cache occupancy
system.cpu.dcache.tags.occ_task_id_blocks::1024         1024                       # Occupied blocks per task id
system.cpu.dcache.tags.age_task_id_blocks_1024::0          359                       # Occupied blocks per task id
system.cpu.dcache.tags.age_task_id_blocks_1024::1          663                       # Occupied blocks per task id
system.cpu.dcache.tags.age_task_id_blocks_1024::2            2                       # Occupied blocks per task id
system.cpu.dcache.tags.occ_task_id_percent::1024            1                       # Percentage of cache occupancy per task id
system.cpu.dcache.tags.tag_accesses          52260768                       # Number of tag accesses
system.cpu.dcache.tags.data_accesses         52260768                       # Number of data accesses

---------- End Simulation Statistics   ----------
