
---------- Begin Simulation Statistics ----------
final_tick                               359103799978500                       # Number of ticks from beginning of simulation (restored from checkpoints and never reset)
host_inst_rate                                  47431                       # Simulator instruction rate (inst/s)
host_mem_usage                                 807384                       # Number of bytes of host memory used
host_op_rate                                    80046                       # Simulator op (including micro ops) rate (op/s)
host_seconds                                   210.83                       # Real time elapsed on the host
host_tick_rate                               44073351                       # Simulator tick rate (ticks/s)
sim_freq                                 1000000000000                       # Frequency of simulated ticks
sim_insts                                    10000009                       # Number of instructions simulated
sim_ops                                      16876344                       # Number of ops (including micro ops) simulated
sim_seconds                                  0.009292                       # Number of seconds simulated
sim_ticks                                  9292138500                       # Number of ticks simulated
system.cpu.Branches                                 1                       # Number of branches fetched
system.cpu.committedInsts                           8                       # Number of instructions committed
system.cpu.committedOps                            16                       # Number of ops (including micro ops) committed
system.cpu.dtb.rdAccesses                           4                       # TLB accesses on read requests
system.cpu.dtb.rdMisses                             0                       # TLB misses on read requests
system.cpu.dtb.wrAccesses                           0                       # TLB accesses on write requests
system.cpu.dtb.wrMisses                             0                       # TLB misses on write requests
system.cpu.idle_fraction                            0                       # Percentage of idle cycles
system.cpu.itb.rdAccesses                           0                       # TLB accesses on read requests
system.cpu.itb.rdMisses                             0                       # TLB misses on read requests
system.cpu.itb.wrAccesses                          12                       # TLB accesses on write requests
system.cpu.itb.wrMisses                             0                       # TLB misses on write requests
system.cpu.not_idle_fraction                        1                       # Percentage of non-idle cycles
system.cpu.numCycles                               20                       # number of cpu cycles simulated
system.cpu.numWorkItemsCompleted                    0                       # number of work items this cpu completed
system.cpu.numWorkItemsStarted                      0                       # number of work items this cpu started
system.cpu.num_busy_cycles                         20                       # Number of busy cycles
system.cpu.num_cc_register_reads                    5                       # number of times the CC registers were read
system.cpu.num_conditional_control_insts            1                       # number of instructions that are conditional controls
system.cpu.num_fp_alu_accesses                     13                       # Number of float alu accesses
system.cpu.num_fp_insts                            13                       # number of float instructions
system.cpu.num_fp_register_reads                   20                       # number of times the floating registers were read
system.cpu.num_fp_register_writes                  13                       # number of times the floating registers were written
system.cpu.num_func_calls                           0                       # number of times a function call or return occured
system.cpu.num_idle_cycles                          0                       # Number of idle cycles
system.cpu.num_int_alu_accesses                     6                       # Number of integer alu accesses
system.cpu.num_int_insts                            6                       # number of integer instructions
system.cpu.num_int_register_reads                  13                       # number of times the integer registers were read
system.cpu.num_int_register_writes                  2                       # number of times the integer registers were written
system.cpu.num_load_insts                           3                       # Number of load instructions
system.cpu.num_mem_refs                             3                       # number of memory refs
system.cpu.num_store_insts                          0                       # Number of store instructions
system.cpu.num_vec_alu_accesses                     0                       # Number of vector alu accesses
system.cpu.num_vec_insts                            0                       # number of vector instructions
system.cpu.num_vec_register_reads                   0                       # number of times the vector registers were read
system.cpu.num_vec_register_writes                  0                       # number of times the vector registers were written
system.cpu.op_class::No_OpClass                     0      0.00%      0.00% # Class of executed instruction
system.cpu.op_class::IntAlu                         5     31.25%     31.25% # Class of executed instruction
system.cpu.op_class::IntMult                        0      0.00%     31.25% # Class of executed instruction
system.cpu.op_class::IntDiv                         0      0.00%     31.25% # Class of executed instruction
system.cpu.op_class::FloatAdd                       2     12.50%     43.75% # Class of executed instruction
system.cpu.op_class::FloatCmp                       0      0.00%     43.75% # Class of executed instruction
system.cpu.op_class::FloatCvt                       0      0.00%     43.75% # Class of executed instruction
system.cpu.op_class::FloatMult                      0      0.00%     43.75% # Class of executed instruction
system.cpu.op_class::FloatMultAcc                   0      0.00%     43.75% # Class of executed instruction
system.cpu.op_class::FloatDiv                       0      0.00%     43.75% # Class of executed instruction
system.cpu.op_class::FloatMisc                      0      0.00%     43.75% # Class of executed instruction
system.cpu.op_class::FloatSqrt                      0      0.00%     43.75% # Class of executed instruction
system.cpu.op_class::SimdAdd                        0      0.00%     43.75% # Class of executed instruction
system.cpu.op_class::SimdAddAcc                     0      0.00%     43.75% # Class of executed instruction
system.cpu.op_class::SimdAlu                        2     12.50%     56.25% # Class of executed instruction
system.cpu.op_class::SimdCmp                        0      0.00%     56.25% # Class of executed instruction
system.cpu.op_class::SimdCvt                        0      0.00%     56.25% # Class of executed instruction
system.cpu.op_class::SimdMisc                       0      0.00%     56.25% # Class of executed instruction
system.cpu.op_class::SimdMult                       0      0.00%     56.25% # Class of executed instruction
system.cpu.op_class::SimdMultAcc                    0      0.00%     56.25% # Class of executed instruction
system.cpu.op_class::SimdShift                      0      0.00%     56.25% # Class of executed instruction
system.cpu.op_class::SimdShiftAcc                   0      0.00%     56.25% # Class of executed instruction
system.cpu.op_class::SimdDiv                        0      0.00%     56.25% # Class of executed instruction
system.cpu.op_class::SimdSqrt                       0      0.00%     56.25% # Class of executed instruction
system.cpu.op_class::SimdFloatAdd                   3     18.75%     75.00% # Class of executed instruction
system.cpu.op_class::SimdFloatAlu                   0      0.00%     75.00% # Class of executed instruction
system.cpu.op_class::SimdFloatCmp                   0      0.00%     75.00% # Class of executed instruction
system.cpu.op_class::SimdFloatCvt                   0      0.00%     75.00% # Class of executed instruction
system.cpu.op_class::SimdFloatDiv                   0      0.00%     75.00% # Class of executed instruction
system.cpu.op_class::SimdFloatMisc                  0      0.00%     75.00% # Class of executed instruction
system.cpu.op_class::SimdFloatMult                  1      6.25%     81.25% # Class of executed instruction
system.cpu.op_class::SimdFloatMultAcc               0      0.00%     81.25% # Class of executed instruction
system.cpu.op_class::SimdFloatSqrt                  0      0.00%     81.25% # Class of executed instruction
system.cpu.op_class::SimdReduceAdd                  0      0.00%     81.25% # Class of executed instruction
system.cpu.op_class::SimdReduceAlu                  0      0.00%     81.25% # Class of executed instruction
system.cpu.op_class::SimdReduceCmp                  0      0.00%     81.25% # Class of executed instruction
system.cpu.op_class::SimdFloatReduceAdd             0      0.00%     81.25% # Class of executed instruction
system.cpu.op_class::SimdFloatReduceCmp             0      0.00%     81.25% # Class of executed instruction
system.cpu.op_class::SimdAes                        0      0.00%     81.25% # Class of executed instruction
system.cpu.op_class::SimdAesMix                     0      0.00%     81.25% # Class of executed instruction
system.cpu.op_class::SimdSha1Hash                   0      0.00%     81.25% # Class of executed instruction
system.cpu.op_class::SimdSha1Hash2                  0      0.00%     81.25% # Class of executed instruction
system.cpu.op_class::SimdSha256Hash                 0      0.00%     81.25% # Class of executed instruction
system.cpu.op_class::SimdSha256Hash2                0      0.00%     81.25% # Class of executed instruction
system.cpu.op_class::SimdShaSigma2                  0      0.00%     81.25% # Class of executed instruction
system.cpu.op_class::SimdShaSigma3                  0      0.00%     81.25% # Class of executed instruction
system.cpu.op_class::SimdPredAlu                    0      0.00%     81.25% # Class of executed instruction
system.cpu.op_class::MemRead                        0      0.00%     81.25% # Class of executed instruction
system.cpu.op_class::MemWrite                       0      0.00%     81.25% # Class of executed instruction
system.cpu.op_class::FloatMemRead                   3     18.75%    100.00% # Class of executed instruction
system.cpu.op_class::FloatMemWrite                  0      0.00%    100.00% # Class of executed instruction
system.cpu.op_class::IprAccess                      0      0.00%    100.00% # Class of executed instruction
system.cpu.op_class::InstPrefetch                   0      0.00%    100.00% # Class of executed instruction
system.cpu.op_class::total                         16                       # Class of executed instruction
system.cpu.workload.numSyscalls                     0                       # Number of system calls
system.membus.snoop_filter.hit_multi_requests            0                       # Number of requests hitting in the snoop filter with multiple (>1) holders of the requested data.
system.membus.snoop_filter.hit_multi_snoops            0                       # Number of snoops hitting in the snoop filter with multiple (>1) holders of the requested data.
system.membus.snoop_filter.hit_single_requests       159097                       # Number of requests hitting in the snoop filter with a single holder of the requested data.
system.membus.snoop_filter.hit_single_snoops            0                       # Number of snoops hitting in the snoop filter with a single holder of the requested data.
system.membus.snoop_filter.tot_requests        327072                       # Total number of requests made to the snoop filter.
system.membus.snoop_filter.tot_snoops               0                       # Total number of snoops made to the snoop filter.
system.switch_cpus.branchPred.BTBCorrect            0                       # Number of correct BTB predictions (this stat may not work properly.
system.switch_cpus.branchPred.BTBHitPct      0.000000                       # BTB Hit Percentage
system.switch_cpus.branchPred.BTBHits               0                       # Number of BTB hits
system.switch_cpus.branchPred.BTBLookups      1359931                       # Number of BTB lookups
system.switch_cpus.branchPred.RASInCorrect           51                       # Number of incorrect RAS predictions.
system.switch_cpus.branchPred.condIncorrect        77042                       # Number of conditional branches incorrect
system.switch_cpus.branchPred.condPredicted      1399635                       # Number of conditional branches predicted
system.switch_cpus.branchPred.indirectHits      1012069                       # Number of indirect target hits.
system.switch_cpus.branchPred.indirectLookups      1359931                       # Number of indirect predictor lookups.
system.switch_cpus.branchPred.indirectMisses       347862                       # Number of indirect misses.
system.switch_cpus.branchPred.lookups         1500868                       # Number of BP lookups
system.switch_cpus.branchPred.usedRAS           49457                       # Number of times the RAS was used to get a target.
system.switch_cpus.branchPredindirectMispredicted        19897                       # Number of mispredicted indirect branches.
system.switch_cpus.cc_regfile_reads           6486896                       # number of cc regfile reads
system.switch_cpus.cc_regfile_writes          4457725                       # number of cc regfile writes
system.switch_cpus.commit.amos                      0                       # Number of atomic instructions committed
system.switch_cpus.commit.branchMispredicts        77122                       # The number of times a branch was mispredicted
system.switch_cpus.commit.branches            1049066                       # Number of branches committed
system.switch_cpus.commit.bw_lim_events       1447595                       # number cycles where commit BW limit reached
system.switch_cpus.commit.commitSquashedInsts      3064227                       # The number of squashed insts skipped by commit
system.switch_cpus.commit.committedInsts     10000001                       # Number of instructions committed
system.switch_cpus.commit.committedOps       16876328                       # Number of ops (including micro ops) committed
system.switch_cpus.commit.committed_per_cycle::samples     18094884                       # Number of insts commited each cycle
system.switch_cpus.commit.committed_per_cycle::mean     0.932657                       # Number of insts commited each cycle
system.switch_cpus.commit.committed_per_cycle::stdev     2.320012                       # Number of insts commited each cycle
system.switch_cpus.commit.committed_per_cycle::underflows            0      0.00%      0.00% # Number of insts commited each cycle
system.switch_cpus.commit.committed_per_cycle::0     14672453     81.09%     81.09% # Number of insts commited each cycle
system.switch_cpus.commit.committed_per_cycle::1       880930      4.87%     85.95% # Number of insts commited each cycle
system.switch_cpus.commit.committed_per_cycle::2       137161      0.76%     86.71% # Number of insts commited each cycle
system.switch_cpus.commit.committed_per_cycle::3       221265      1.22%     87.94% # Number of insts commited each cycle
system.switch_cpus.commit.committed_per_cycle::4       389837      2.15%     90.09% # Number of insts commited each cycle
system.switch_cpus.commit.committed_per_cycle::5       212031      1.17%     91.26% # Number of insts commited each cycle
system.switch_cpus.commit.committed_per_cycle::6        78266      0.43%     91.69% # Number of insts commited each cycle
system.switch_cpus.commit.committed_per_cycle::7        55346      0.31%     92.00% # Number of insts commited each cycle
system.switch_cpus.commit.committed_per_cycle::8      1447595      8.00%    100.00% # Number of insts commited each cycle
system.switch_cpus.commit.committed_per_cycle::overflows            0      0.00%    100.00% # Number of insts commited each cycle
system.switch_cpus.commit.committed_per_cycle::min_value            0                       # Number of insts commited each cycle
system.switch_cpus.commit.committed_per_cycle::max_value            8                       # Number of insts commited each cycle
system.switch_cpus.commit.committed_per_cycle::total     18094884                       # Number of insts commited each cycle
system.switch_cpus.commit.fp_insts            8713194                       # Number of committed floating point instructions.
system.switch_cpus.commit.function_calls        26226                       # Number of function calls committed.
system.switch_cpus.commit.int_insts          10019631                       # Number of committed integer instructions.
system.switch_cpus.commit.loads               2743170                       # Number of loads committed
system.switch_cpus.commit.membars                   0                       # Number of memory barriers committed
system.switch_cpus.commit.op_class_0::No_OpClass        27517      0.16%      0.16% # Class of committed instruction
system.switch_cpus.commit.op_class_0::IntAlu      7410720     43.91%     44.07% # Class of committed instruction
system.switch_cpus.commit.op_class_0::IntMult          119      0.00%     44.08% # Class of committed instruction
system.switch_cpus.commit.op_class_0::IntDiv           56      0.00%     44.08% # Class of committed instruction
system.switch_cpus.commit.op_class_0::FloatAdd       891416      5.28%     49.36% # Class of committed instruction
system.switch_cpus.commit.op_class_0::FloatCmp            0      0.00%     49.36% # Class of committed instruction
system.switch_cpus.commit.op_class_0::FloatCvt            0      0.00%     49.36% # Class of committed instruction
system.switch_cpus.commit.op_class_0::FloatMult            0      0.00%     49.36% # Class of committed instruction
system.switch_cpus.commit.op_class_0::FloatMultAcc            0      0.00%     49.36% # Class of committed instruction
system.switch_cpus.commit.op_class_0::FloatDiv            0      0.00%     49.36% # Class of committed instruction
system.switch_cpus.commit.op_class_0::FloatMisc            0      0.00%     49.36% # Class of committed instruction
system.switch_cpus.commit.op_class_0::FloatSqrt            0      0.00%     49.36% # Class of committed instruction
system.switch_cpus.commit.op_class_0::SimdAdd            0      0.00%     49.36% # Class of committed instruction
system.switch_cpus.commit.op_class_0::SimdAddAcc            0      0.00%     49.36% # Class of committed instruction
system.switch_cpus.commit.op_class_0::SimdAlu      1379320      8.17%     57.53% # Class of committed instruction
system.switch_cpus.commit.op_class_0::SimdCmp            0      0.00%     57.53% # Class of committed instruction
system.switch_cpus.commit.op_class_0::SimdCvt            4      0.00%     57.53% # Class of committed instruction
system.switch_cpus.commit.op_class_0::SimdMisc        34436      0.20%     57.74% # Class of committed instruction
system.switch_cpus.commit.op_class_0::SimdMult            0      0.00%     57.74% # Class of committed instruction
system.switch_cpus.commit.op_class_0::SimdMultAcc            0      0.00%     57.74% # Class of committed instruction
system.switch_cpus.commit.op_class_0::SimdShift            0      0.00%     57.74% # Class of committed instruction
system.switch_cpus.commit.op_class_0::SimdShiftAcc            0      0.00%     57.74% # Class of committed instruction
system.switch_cpus.commit.op_class_0::SimdDiv            0      0.00%     57.74% # Class of committed instruction
system.switch_cpus.commit.op_class_0::SimdSqrt            0      0.00%     57.74% # Class of committed instruction
system.switch_cpus.commit.op_class_0::SimdFloatAdd      1310530      7.77%     65.50% # Class of committed instruction
system.switch_cpus.commit.op_class_0::SimdFloatAlu            0      0.00%     65.50% # Class of committed instruction
system.switch_cpus.commit.op_class_0::SimdFloatCmp        15450      0.09%     65.59% # Class of committed instruction
system.switch_cpus.commit.op_class_0::SimdFloatCvt      1398264      8.29%     73.88% # Class of committed instruction
system.switch_cpus.commit.op_class_0::SimdFloatDiv            0      0.00%     73.88% # Class of committed instruction
system.switch_cpus.commit.op_class_0::SimdFloatMisc            0      0.00%     73.88% # Class of committed instruction
system.switch_cpus.commit.op_class_0::SimdFloatMult      1344926      7.97%     81.85% # Class of committed instruction
system.switch_cpus.commit.op_class_0::SimdFloatMultAcc            0      0.00%     81.85% # Class of committed instruction
system.switch_cpus.commit.op_class_0::SimdFloatSqrt            0      0.00%     81.85% # Class of committed instruction
system.switch_cpus.commit.op_class_0::SimdReduceAdd            0      0.00%     81.85% # Class of committed instruction
system.switch_cpus.commit.op_class_0::SimdReduceAlu            0      0.00%     81.85% # Class of committed instruction
system.switch_cpus.commit.op_class_0::SimdReduceCmp            0      0.00%     81.85% # Class of committed instruction
system.switch_cpus.commit.op_class_0::SimdFloatReduceAdd            0      0.00%     81.85% # Class of committed instruction
system.switch_cpus.commit.op_class_0::SimdFloatReduceCmp            0      0.00%     81.85% # Class of committed instruction
system.switch_cpus.commit.op_class_0::SimdAes            0      0.00%     81.85% # Class of committed instruction
system.switch_cpus.commit.op_class_0::SimdAesMix            0      0.00%     81.85% # Class of committed instruction
system.switch_cpus.commit.op_class_0::SimdSha1Hash            0      0.00%     81.85% # Class of committed instruction
system.switch_cpus.commit.op_class_0::SimdSha1Hash2            0      0.00%     81.85% # Class of committed instruction
system.switch_cpus.commit.op_class_0::SimdSha256Hash            0      0.00%     81.85% # Class of committed instruction
system.switch_cpus.commit.op_class_0::SimdSha256Hash2            0      0.00%     81.85% # Class of committed instruction
system.switch_cpus.commit.op_class_0::SimdShaSigma2            0      0.00%     81.85% # Class of committed instruction
system.switch_cpus.commit.op_class_0::SimdShaSigma3            0      0.00%     81.85% # Class of committed instruction
system.switch_cpus.commit.op_class_0::SimdPredAlu            0      0.00%     81.85% # Class of committed instruction
system.switch_cpus.commit.op_class_0::MemRead       937733      5.56%     87.40% # Class of committed instruction
system.switch_cpus.commit.op_class_0::MemWrite       275299      1.63%     89.03% # Class of committed instruction
system.switch_cpus.commit.op_class_0::FloatMemRead      1805437     10.70%     99.73% # Class of committed instruction
system.switch_cpus.commit.op_class_0::FloatMemWrite        45101      0.27%    100.00% # Class of committed instruction
system.switch_cpus.commit.op_class_0::IprAccess            0      0.00%    100.00% # Class of committed instruction
system.switch_cpus.commit.op_class_0::InstPrefetch            0      0.00%    100.00% # Class of committed instruction
system.switch_cpus.commit.op_class_0::total     16876328                       # Class of committed instruction
system.switch_cpus.commit.refs                3063570                       # Number of memory references committed
system.switch_cpus.commit.swp_count                 0                       # Number of s/w prefetches committed
system.switch_cpus.commit.vec_insts                 0                       # Number of committed Vector instructions.
system.switch_cpus.committedInsts            10000001                       # Number of Instructions Simulated
system.switch_cpus.committedOps              16876328                       # Number of Ops (including micro ops) Simulated
system.switch_cpus.cpi                       1.858426                       # CPI: Cycles Per Instruction
system.switch_cpus.cpi_total                 1.858426                       # CPI: Total CPI of All Threads
system.switch_cpus.decode.BlockedCycles      14278132                       # Number of cycles decode is blocked
system.switch_cpus.decode.DecodedInsts       20859225                       # Number of instructions handled by decode
system.switch_cpus.decode.IdleCycles          1189091                       # Number of cycles decode is idle
system.switch_cpus.decode.RunCycles           2160547                       # Number of cycles decode is running
system.switch_cpus.decode.SquashCycles          77370                       # Number of cycles decode is squashing
system.switch_cpus.decode.UnblockCycles        820953                       # Number of cycles decode is unblocking
system.switch_cpus.dtb.rdAccesses             3223134                       # TLB accesses on read requests
system.switch_cpus.dtb.rdMisses                 15731                       # TLB misses on read requests
system.switch_cpus.dtb.wrAccesses              369248                       # TLB accesses on write requests
system.switch_cpus.dtb.wrMisses                  1276                       # TLB misses on write requests
system.switch_cpus.fetch.Branches             1500868                       # Number of branches that fetch encountered
system.switch_cpus.fetch.CacheLines           1736041                       # Number of cache lines fetched
system.switch_cpus.fetch.Cycles              16643189                       # Number of cycles fetch has run and was not squashing or blocked
system.switch_cpus.fetch.IcacheSquashes         17025                       # Number of outstanding Icache misses that were squashed
system.switch_cpus.fetch.IcacheWaitRetryStallCycles           76                       # Number of stall cycles due to full MSHR
system.switch_cpus.fetch.Insts               13082737                       # Number of instructions fetch has processed
system.switch_cpus.fetch.MiscStallCycles           73                       # Number of cycles fetch has spent waiting on interrupts, or bad addresses, or out of MSHRs
system.switch_cpus.fetch.PendingTrapStallCycles         3589                       # Number of stall cycles due to pending traps
system.switch_cpus.fetch.SquashCycles          154740                       # Number of cycles fetch has spent squashing
system.switch_cpus.fetch.branchRate          0.080760                       # Number of branch fetches per cycle
system.switch_cpus.fetch.icacheStallCycles      1801800                       # Number of cycles fetch is stalled on an Icache miss
system.switch_cpus.fetch.predictedBranches      1061526                       # Number of branches that fetch has predicted taken
system.switch_cpus.fetch.rate                0.703969                       # Number of inst fetches per cycle
system.switch_cpus.fetch.rateDist::samples     18526097                       # Number of instructions fetched each cycle (Total)
system.switch_cpus.fetch.rateDist::mean      1.196778                       # Number of instructions fetched each cycle (Total)
system.switch_cpus.fetch.rateDist::stdev     2.601185                       # Number of instructions fetched each cycle (Total)
system.switch_cpus.fetch.rateDist::underflows            0      0.00%      0.00% # Number of instructions fetched each cycle (Total)
system.switch_cpus.fetch.rateDist::0         14770506     79.73%     79.73% # Number of instructions fetched each cycle (Total)
system.switch_cpus.fetch.rateDist::1           277222      1.50%     81.22% # Number of instructions fetched each cycle (Total)
system.switch_cpus.fetch.rateDist::2           209465      1.13%     82.36% # Number of instructions fetched each cycle (Total)
system.switch_cpus.fetch.rateDist::3           227017      1.23%     83.58% # Number of instructions fetched each cycle (Total)
system.switch_cpus.fetch.rateDist::4           320377      1.73%     85.31% # Number of instructions fetched each cycle (Total)
system.switch_cpus.fetch.rateDist::5           387234      2.09%     87.40% # Number of instructions fetched each cycle (Total)
system.switch_cpus.fetch.rateDist::6           494158      2.67%     90.07% # Number of instructions fetched each cycle (Total)
system.switch_cpus.fetch.rateDist::7           109149      0.59%     90.66% # Number of instructions fetched each cycle (Total)
system.switch_cpus.fetch.rateDist::8          1730969      9.34%    100.00% # Number of instructions fetched each cycle (Total)
system.switch_cpus.fetch.rateDist::overflows            0      0.00%    100.00% # Number of instructions fetched each cycle (Total)
system.switch_cpus.fetch.rateDist::min_value            0                       # Number of instructions fetched each cycle (Total)
system.switch_cpus.fetch.rateDist::max_value            8                       # Number of instructions fetched each cycle (Total)
system.switch_cpus.fetch.rateDist::total     18526097                       # Number of instructions fetched each cycle (Total)
system.switch_cpus.fp_regfile_reads          14832245                       # number of floating regfile reads
system.switch_cpus.fp_regfile_writes          8823765                       # number of floating regfile writes
system.switch_cpus.idleCycles                   58160                       # Total number of cycles that the CPU has spent unscheduled due to idling
system.switch_cpus.iew.branchMispredicts        86984                       # Number of branch mispredicts detected at execute
system.switch_cpus.iew.exec_branches          1167415                       # Number of branches executed
system.switch_cpus.iew.exec_nop                     0                       # number of nop insts executed
system.switch_cpus.iew.exec_rate             1.019443                       # Inst execution rate
system.switch_cpus.iew.exec_refs              3671755                       # number of memory reference insts executed
system.switch_cpus.iew.exec_stores             369185                       # Number of stores executed
system.switch_cpus.iew.exec_swp                     0                       # number of swp insts executed
system.switch_cpus.iew.iewBlockCycles         7561016                       # Number of cycles IEW is blocking
system.switch_cpus.iew.iewDispLoadInsts       3312558                       # Number of dispatched load instructions
system.switch_cpus.iew.iewDispNonSpecInsts           25                       # Number of dispatched non-speculative instructions
system.switch_cpus.iew.iewDispSquashedInsts         7046                       # Number of squashed instructions skipped by dispatch
system.switch_cpus.iew.iewDispStoreInsts       432620                       # Number of dispatched store instructions
system.switch_cpus.iew.iewDispatchedInsts     19937674                       # Number of instructions dispatched to IQ
system.switch_cpus.iew.iewExecLoadInsts       3302570                       # Number of load instructions executed
system.switch_cpus.iew.iewExecSquashedInsts       140575                       # Number of squashed instructions skipped in execute
system.switch_cpus.iew.iewExecutedInsts      18945591                       # Number of executed instructions
system.switch_cpus.iew.iewIQFullEvents          81784                       # Number of times the IQ has become full, causing a stall
system.switch_cpus.iew.iewIdleCycles                0                       # Number of cycles IEW is idle
system.switch_cpus.iew.iewLSQFullEvents        593467                       # Number of times the LSQ has become full, causing a stall
system.switch_cpus.iew.iewSquashCycles          77370                       # Number of cycles IEW is squashing
system.switch_cpus.iew.iewUnblockCycles        722914                       # Number of cycles IEW is unblocking
system.switch_cpus.iew.lsq.thread0.blockedLoads            0                       # Number of blocked loads due to partial load-store forwarding
system.switch_cpus.iew.lsq.thread0.cacheBlocked        28130                       # Number of times an access to memory failed due to the cache being blocked
system.switch_cpus.iew.lsq.thread0.forwLoads        55664                       # Number of loads that had data forwarded from stores
system.switch_cpus.iew.lsq.thread0.ignoredResponses          373                       # Number of memory responses ignored because the instruction is squashed
system.switch_cpus.iew.lsq.thread0.invAddrLoads            0                       # Number of loads ignored due to an invalid address
system.switch_cpus.iew.lsq.thread0.invAddrSwpfs            0                       # Number of software prefetches ignored due to an invalid address
system.switch_cpus.iew.lsq.thread0.memOrderViolation          311                       # Number of memory ordering violations
system.switch_cpus.iew.lsq.thread0.rescheduledLoads          254                       # Number of loads that were rescheduled
system.switch_cpus.iew.lsq.thread0.squashedLoads       569369                       # Number of loads squashed
system.switch_cpus.iew.lsq.thread0.squashedStores       112220                       # Number of stores squashed
system.switch_cpus.iew.memOrderViolationEvents          311                       # Number of memory order violations
system.switch_cpus.iew.predictedNotTakenIncorrect        30114                       # Number of branches that were predicted not taken incorrectly
system.switch_cpus.iew.predictedTakenIncorrect        56870                       # Number of branches that were predicted taken incorrectly
system.switch_cpus.iew.wb_consumers          24077945                       # num instructions consuming a value
system.switch_cpus.iew.wb_count              18638205                       # cumulative count of insts written-back
system.switch_cpus.iew.wb_fanout             0.596768                       # average fanout of values written-back
system.switch_cpus.iew.wb_producers          14368948                       # num instructions producing a value
system.switch_cpus.iew.wb_rate               1.002903                       # insts written-back per cycle
system.switch_cpus.iew.wb_sent               18671205                       # cumulative count of insts sent to commit
system.switch_cpus.int_regfile_reads         17221985                       # number of integer regfile reads
system.switch_cpus.int_regfile_writes         8248772                       # number of integer regfile writes
system.switch_cpus.ipc                       0.538090                       # IPC: Instructions Per Cycle
system.switch_cpus.ipc_total                 0.538090                       # IPC: Total IPC of All Threads
system.switch_cpus.iq.FU_type_0::No_OpClass        38863      0.20%      0.20% # Type of FU issued
system.switch_cpus.iq.FU_type_0::IntAlu       8778255     45.99%     46.20% # Type of FU issued
system.switch_cpus.iq.FU_type_0::IntMult          215      0.00%     46.20% # Type of FU issued
system.switch_cpus.iq.FU_type_0::IntDiv            88      0.00%     46.20% # Type of FU issued
system.switch_cpus.iq.FU_type_0::FloatAdd       966643      5.06%     51.26% # Type of FU issued
system.switch_cpus.iq.FU_type_0::FloatCmp            0      0.00%     51.26% # Type of FU issued
system.switch_cpus.iq.FU_type_0::FloatCvt            0      0.00%     51.26% # Type of FU issued
system.switch_cpus.iq.FU_type_0::FloatMult            0      0.00%     51.26% # Type of FU issued
system.switch_cpus.iq.FU_type_0::FloatMultAcc            0      0.00%     51.26% # Type of FU issued
system.switch_cpus.iq.FU_type_0::FloatDiv            0      0.00%     51.26% # Type of FU issued
system.switch_cpus.iq.FU_type_0::FloatMisc            0      0.00%     51.26% # Type of FU issued
system.switch_cpus.iq.FU_type_0::FloatSqrt            0      0.00%     51.26% # Type of FU issued
system.switch_cpus.iq.FU_type_0::SimdAdd            0      0.00%     51.26% # Type of FU issued
system.switch_cpus.iq.FU_type_0::SimdAddAcc            0      0.00%     51.26% # Type of FU issued
system.switch_cpus.iq.FU_type_0::SimdAlu      1448682      7.59%     58.85% # Type of FU issued
system.switch_cpus.iq.FU_type_0::SimdCmp            0      0.00%     58.85% # Type of FU issued
system.switch_cpus.iq.FU_type_0::SimdCvt            8      0.00%     58.85% # Type of FU issued
system.switch_cpus.iq.FU_type_0::SimdMisc        35254      0.18%     59.04% # Type of FU issued
system.switch_cpus.iq.FU_type_0::SimdMult            0      0.00%     59.04% # Type of FU issued
system.switch_cpus.iq.FU_type_0::SimdMultAcc            0      0.00%     59.04% # Type of FU issued
system.switch_cpus.iq.FU_type_0::SimdShift            0      0.00%     59.04% # Type of FU issued
system.switch_cpus.iq.FU_type_0::SimdShiftAcc            0      0.00%     59.04% # Type of FU issued
system.switch_cpus.iq.FU_type_0::SimdDiv            0      0.00%     59.04% # Type of FU issued
system.switch_cpus.iq.FU_type_0::SimdSqrt            0      0.00%     59.04% # Type of FU issued
system.switch_cpus.iq.FU_type_0::SimdFloatAdd      1317093      6.90%     65.94% # Type of FU issued
system.switch_cpus.iq.FU_type_0::SimdFloatAlu            0      0.00%     65.94% # Type of FU issued
system.switch_cpus.iq.FU_type_0::SimdFloatCmp        15452      0.08%     66.02% # Type of FU issued
system.switch_cpus.iq.FU_type_0::SimdFloatCvt      1408907      7.38%     73.40% # Type of FU issued
system.switch_cpus.iq.FU_type_0::SimdFloatDiv            0      0.00%     73.40% # Type of FU issued
system.switch_cpus.iq.FU_type_0::SimdFloatMisc            0      0.00%     73.40% # Type of FU issued
system.switch_cpus.iq.FU_type_0::SimdFloatMult      1352099      7.08%     80.49% # Type of FU issued
system.switch_cpus.iq.FU_type_0::SimdFloatMultAcc            0      0.00%     80.49% # Type of FU issued
system.switch_cpus.iq.FU_type_0::SimdFloatSqrt            0      0.00%     80.49% # Type of FU issued
system.switch_cpus.iq.FU_type_0::SimdReduceAdd            0      0.00%     80.49% # Type of FU issued
system.switch_cpus.iq.FU_type_0::SimdReduceAlu            0      0.00%     80.49% # Type of FU issued
system.switch_cpus.iq.FU_type_0::SimdReduceCmp            0      0.00%     80.49% # Type of FU issued
system.switch_cpus.iq.FU_type_0::SimdFloatReduceAdd            0      0.00%     80.49% # Type of FU issued
system.switch_cpus.iq.FU_type_0::SimdFloatReduceCmp            0      0.00%     80.49% # Type of FU issued
system.switch_cpus.iq.FU_type_0::SimdAes            0      0.00%     80.49% # Type of FU issued
system.switch_cpus.iq.FU_type_0::SimdAesMix            0      0.00%     80.49% # Type of FU issued
system.switch_cpus.iq.FU_type_0::SimdSha1Hash            0      0.00%     80.49% # Type of FU issued
system.switch_cpus.iq.FU_type_0::SimdSha1Hash2            0      0.00%     80.49% # Type of FU issued
system.switch_cpus.iq.FU_type_0::SimdSha256Hash            0      0.00%     80.49% # Type of FU issued
system.switch_cpus.iq.FU_type_0::SimdSha256Hash2            0      0.00%     80.49% # Type of FU issued
system.switch_cpus.iq.FU_type_0::SimdShaSigma2            0      0.00%     80.49% # Type of FU issued
system.switch_cpus.iq.FU_type_0::SimdShaSigma3            0      0.00%     80.49% # Type of FU issued
system.switch_cpus.iq.FU_type_0::SimdPredAlu            0      0.00%     80.49% # Type of FU issued
system.switch_cpus.iq.FU_type_0::MemRead      1371955      7.19%     87.67% # Type of FU issued
system.switch_cpus.iq.FU_type_0::MemWrite       331346      1.74%     89.41% # Type of FU issued
system.switch_cpus.iq.FU_type_0::FloatMemRead      1975335     10.35%     99.76% # Type of FU issued
system.switch_cpus.iq.FU_type_0::FloatMemWrite        45973      0.24%    100.00% # Type of FU issued
system.switch_cpus.iq.FU_type_0::IprAccess            0      0.00%    100.00% # Type of FU issued
system.switch_cpus.iq.FU_type_0::InstPrefetch            0      0.00%    100.00% # Type of FU issued
system.switch_cpus.iq.FU_type_0::total       19086168                       # Type of FU issued
system.switch_cpus.iq.fp_alu_accesses         9277081                       # Number of floating point alu accesses
system.switch_cpus.iq.fp_inst_queue_reads     18350317                       # Number of floating instruction queue reads
system.switch_cpus.iq.fp_inst_queue_wakeup_accesses      8912663                       # Number of floating instruction queue wakeup accesses
system.switch_cpus.iq.fp_inst_queue_writes      9714923                       # Number of floating instruction queue writes
system.switch_cpus.iq.fu_busy_cnt              351439                       # FU busy when requested
system.switch_cpus.iq.fu_busy_rate           0.018413                       # FU busy rate (busy events/executed inst)
system.switch_cpus.iq.fu_full::No_OpClass            0      0.00%      0.00% # attempts to use FU when none available
system.switch_cpus.iq.fu_full::IntAlu          104836     29.83%     29.83% # attempts to use FU when none available
system.switch_cpus.iq.fu_full::IntMult              0      0.00%     29.83% # attempts to use FU when none available
system.switch_cpus.iq.fu_full::IntDiv               0      0.00%     29.83% # attempts to use FU when none available
system.switch_cpus.iq.fu_full::FloatAdd             0      0.00%     29.83% # attempts to use FU when none available
system.switch_cpus.iq.fu_full::FloatCmp             0      0.00%     29.83% # attempts to use FU when none available
system.switch_cpus.iq.fu_full::FloatCvt             0      0.00%     29.83% # attempts to use FU when none available
system.switch_cpus.iq.fu_full::FloatMult            0      0.00%     29.83% # attempts to use FU when none available
system.switch_cpus.iq.fu_full::FloatMultAcc            0      0.00%     29.83% # attempts to use FU when none available
system.switch_cpus.iq.fu_full::FloatDiv             0      0.00%     29.83% # attempts to use FU when none available
system.switch_cpus.iq.fu_full::FloatMisc            0      0.00%     29.83% # attempts to use FU when none available
system.switch_cpus.iq.fu_full::FloatSqrt            0      0.00%     29.83% # attempts to use FU when none available
system.switch_cpus.iq.fu_full::SimdAdd              0      0.00%     29.83% # attempts to use FU when none available
system.switch_cpus.iq.fu_full::SimdAddAcc            0      0.00%     29.83% # attempts to use FU when none available
system.switch_cpus.iq.fu_full::SimdAlu          62220     17.70%     47.53% # attempts to use FU when none available
system.switch_cpus.iq.fu_full::SimdCmp              0      0.00%     47.53% # attempts to use FU when none available
system.switch_cpus.iq.fu_full::SimdCvt              0      0.00%     47.53% # attempts to use FU when none available
system.switch_cpus.iq.fu_full::SimdMisc             0      0.00%     47.53% # attempts to use FU when none available
system.switch_cpus.iq.fu_full::SimdMult             0      0.00%     47.53% # attempts to use FU when none available
system.switch_cpus.iq.fu_full::SimdMultAcc            0      0.00%     47.53% # attempts to use FU when none available
system.switch_cpus.iq.fu_full::SimdShift            0      0.00%     47.53% # attempts to use FU when none available
system.switch_cpus.iq.fu_full::SimdShiftAcc            0      0.00%     47.53% # attempts to use FU when none available
system.switch_cpus.iq.fu_full::SimdDiv              0      0.00%     47.53% # attempts to use FU when none available
system.switch_cpus.iq.fu_full::SimdSqrt             0      0.00%     47.53% # attempts to use FU when none available
system.switch_cpus.iq.fu_full::SimdFloatAdd        83949     23.89%     71.42% # attempts to use FU when none available
system.switch_cpus.iq.fu_full::SimdFloatAlu            0      0.00%     71.42% # attempts to use FU when none available
system.switch_cpus.iq.fu_full::SimdFloatCmp            0      0.00%     71.42% # attempts to use FU when none available
system.switch_cpus.iq.fu_full::SimdFloatCvt        23163      6.59%     78.01% # attempts to use FU when none available
system.switch_cpus.iq.fu_full::SimdFloatDiv            0      0.00%     78.01% # attempts to use FU when none available
system.switch_cpus.iq.fu_full::SimdFloatMisc            0      0.00%     78.01% # attempts to use FU when none available
system.switch_cpus.iq.fu_full::SimdFloatMult         3215      0.91%     78.93% # attempts to use FU when none available
system.switch_cpus.iq.fu_full::SimdFloatMultAcc            0      0.00%     78.93% # attempts to use FU when none available
system.switch_cpus.iq.fu_full::SimdFloatSqrt            0      0.00%     78.93% # attempts to use FU when none available
system.switch_cpus.iq.fu_full::SimdReduceAdd            0      0.00%     78.93% # attempts to use FU when none available
system.switch_cpus.iq.fu_full::SimdReduceAlu            0      0.00%     78.93% # attempts to use FU when none available
system.switch_cpus.iq.fu_full::SimdReduceCmp            0      0.00%     78.93% # attempts to use FU when none available
system.switch_cpus.iq.fu_full::SimdFloatReduceAdd            0      0.00%     78.93% # attempts to use FU when none available
system.switch_cpus.iq.fu_full::SimdFloatReduceCmp            0      0.00%     78.93% # attempts to use FU when none available
system.switch_cpus.iq.fu_full::SimdAes              0      0.00%     78.93% # attempts to use FU when none available
system.switch_cpus.iq.fu_full::SimdAesMix            0      0.00%     78.93% # attempts to use FU when none available
system.switch_cpus.iq.fu_full::SimdSha1Hash            0      0.00%     78.93% # attempts to use FU when none available
system.switch_cpus.iq.fu_full::SimdSha1Hash2            0      0.00%     78.93% # attempts to use FU when none available
system.switch_cpus.iq.fu_full::SimdSha256Hash            0      0.00%     78.93% # attempts to use FU when none available
system.switch_cpus.iq.fu_full::SimdSha256Hash2            0      0.00%     78.93% # attempts to use FU when none available
system.switch_cpus.iq.fu_full::SimdShaSigma2            0      0.00%     78.93% # attempts to use FU when none available
system.switch_cpus.iq.fu_full::SimdShaSigma3            0      0.00%     78.93% # attempts to use FU when none available
system.switch_cpus.iq.fu_full::SimdPredAlu            0      0.00%     78.93% # attempts to use FU when none available
system.switch_cpus.iq.fu_full::MemRead          33130      9.43%     88.35% # attempts to use FU when none available
system.switch_cpus.iq.fu_full::MemWrite          5850      1.66%     90.02% # attempts to use FU when none available
system.switch_cpus.iq.fu_full::FloatMemRead        34992      9.96%     99.98% # attempts to use FU when none available
system.switch_cpus.iq.fu_full::FloatMemWrite           84      0.02%    100.00% # attempts to use FU when none available
system.switch_cpus.iq.fu_full::IprAccess            0      0.00%    100.00% # attempts to use FU when none available
system.switch_cpus.iq.fu_full::InstPrefetch            0      0.00%    100.00% # attempts to use FU when none available
system.switch_cpus.iq.int_alu_accesses       10121663                       # Number of integer alu accesses
system.switch_cpus.iq.int_inst_queue_reads     38747969                       # Number of integer instruction queue reads
system.switch_cpus.iq.int_inst_queue_wakeup_accesses      9725542                       # Number of integer instruction queue wakeup accesses
system.switch_cpus.iq.int_inst_queue_writes     13284265                       # Number of integer instruction queue writes
system.switch_cpus.iq.iqInstsAdded           19937603                       # Number of instructions added to the IQ (excludes non-spec)
system.switch_cpus.iq.iqInstsIssued          19086168                       # Number of instructions issued
system.switch_cpus.iq.iqNonSpecInstsAdded           71                       # Number of non-speculative instructions added to the IQ
system.switch_cpus.iq.iqSquashedInstsExamined      3061235                       # Number of squashed instructions iterated over during squash; mainly for profiling
system.switch_cpus.iq.iqSquashedInstsIssued        48416                       # Number of squashed instructions issued
system.switch_cpus.iq.iqSquashedNonSpecRemoved           71                       # Number of squashed non-spec instructions that were removed
system.switch_cpus.iq.iqSquashedOperandsExamined      4249555                       # Number of squashed operands that are examined and possibly removed from graph
system.switch_cpus.iq.issued_per_cycle::samples     18526097                       # Number of insts issued each cycle
system.switch_cpus.iq.issued_per_cycle::mean     1.030231                       # Number of insts issued each cycle
system.switch_cpus.iq.issued_per_cycle::stdev     1.905242                       # Number of insts issued each cycle
system.switch_cpus.iq.issued_per_cycle::underflows            0      0.00%      0.00% # Number of insts issued each cycle
system.switch_cpus.iq.issued_per_cycle::0     12697871     68.54%     68.54% # Number of insts issued each cycle
system.switch_cpus.iq.issued_per_cycle::1      1500695      8.10%     76.64% # Number of insts issued each cycle
system.switch_cpus.iq.issued_per_cycle::2      1070589      5.78%     82.42% # Number of insts issued each cycle
system.switch_cpus.iq.issued_per_cycle::3       901043      4.86%     87.28% # Number of insts issued each cycle
system.switch_cpus.iq.issued_per_cycle::4       794285      4.29%     91.57% # Number of insts issued each cycle
system.switch_cpus.iq.issued_per_cycle::5       559719      3.02%     94.59% # Number of insts issued each cycle
system.switch_cpus.iq.issued_per_cycle::6       471290      2.54%     97.14% # Number of insts issued each cycle
system.switch_cpus.iq.issued_per_cycle::7       307149      1.66%     98.79% # Number of insts issued each cycle
system.switch_cpus.iq.issued_per_cycle::8       223456      1.21%    100.00% # Number of insts issued each cycle
system.switch_cpus.iq.issued_per_cycle::overflows            0      0.00%    100.00% # Number of insts issued each cycle
system.switch_cpus.iq.issued_per_cycle::min_value            0                       # Number of insts issued each cycle
system.switch_cpus.iq.issued_per_cycle::max_value            8                       # Number of insts issued each cycle
system.switch_cpus.iq.issued_per_cycle::total     18526097                       # Number of insts issued each cycle
system.switch_cpus.iq.rate                   1.027007                       # Inst issue rate
system.switch_cpus.iq.vec_alu_accesses              0                       # Number of vector alu accesses
system.switch_cpus.iq.vec_inst_queue_reads            0                       # Number of vector instruction queue reads
system.switch_cpus.iq.vec_inst_queue_wakeup_accesses            0                       # Number of vector instruction queue wakeup accesses
system.switch_cpus.iq.vec_inst_queue_writes            0                       # Number of vector instruction queue writes
system.switch_cpus.itb.rdAccesses                   0                       # TLB accesses on read requests
system.switch_cpus.itb.rdMisses                     0                       # TLB misses on read requests
system.switch_cpus.itb.wrAccesses             1736456                       # TLB accesses on write requests
system.switch_cpus.itb.wrMisses                   454                       # TLB misses on write requests
system.switch_cpus.memDep0.conflictingLoads        60254                       # Number of conflicting loads.
system.switch_cpus.memDep0.conflictingStores        21766                       # Number of conflicting stores.
system.switch_cpus.memDep0.insertedLoads      3312558                       # Number of loads inserted to the mem dependence unit.
system.switch_cpus.memDep0.insertedStores       432620                       # Number of stores inserted to the mem dependence unit.
system.switch_cpus.misc_regfile_reads         6139279                       # number of misc regfile reads
system.switch_cpus.misc_regfile_writes              1                       # number of misc regfile writes
system.switch_cpus.numCycles                 18584257                       # number of cpu cycles simulated
system.switch_cpus.numWorkItemsCompleted            0                       # number of work items this cpu completed
system.switch_cpus.numWorkItemsStarted              0                       # number of work items this cpu started
system.switch_cpus.rename.BlockCycles        11661719                       # Number of cycles rename is blocking
system.switch_cpus.rename.CommittedMaps      19414366                       # Number of HB maps that are committed
system.switch_cpus.rename.IQFullEvents        1422696                       # Number of times rename has blocked due to IQ full
system.switch_cpus.rename.IdleCycles          1535544                       # Number of cycles rename is idle
system.switch_cpus.rename.LQFullEvents         537381                       # Number of times rename has blocked due to LQ full
system.switch_cpus.rename.ROBFullEvents        150471                       # Number of times rename has blocked due to ROB full
system.switch_cpus.rename.RenameLookups      49494464                       # Number of register rename lookups that rename has made
system.switch_cpus.rename.RenamedInsts       20498471                       # Number of instructions processed by rename
system.switch_cpus.rename.RenamedOperands     23747757                       # Number of destination operands rename has renamed
system.switch_cpus.rename.RunCycles           2577794                       # Number of cycles rename is running
system.switch_cpus.rename.SQFullEvents         444337                       # Number of times rename has blocked due to SQ full
system.switch_cpus.rename.SquashCycles          77370                       # Number of cycles rename is squashing
system.switch_cpus.rename.UnblockCycles       2673563                       # Number of cycles rename is unblocking
system.switch_cpus.rename.UndoneMaps          4333259                       # Number of HB maps that are undone due to squashing
system.switch_cpus.rename.fp_rename_lookups     15637937                       # Number of floating rename lookups
system.switch_cpus.rename.int_rename_lookups     19432010                       # Number of integer rename lookups
system.switch_cpus.rename.serializeStallCycles          103                       # count of cycles rename stalled for serializing inst
system.switch_cpus.rename.serializingInsts            2                       # count of serializing insts renamed
system.switch_cpus.rename.skidInsts           4328210                       # count of insts added to the skid buffer
system.switch_cpus.rename.tempSerializingInsts            2                       # count of temporary serializing insts renamed
system.switch_cpus.rob.rob_reads             36587844                       # The number of ROB reads
system.switch_cpus.rob.rob_writes            40313295                       # The number of ROB writes
system.switch_cpus.timesIdled                     629                       # Number of times that the entire CPU went into an idle state and unscheduled itself
system.tol2bus.snoop_filter.hit_multi_requests            0                       # Number of requests hitting in the snoop filter with multiple (>1) holders of the requested data.
system.tol2bus.snoop_filter.hit_multi_snoops            0                       # Number of snoops hitting in the snoop filter with multiple (>1) holders of the requested data.
system.tol2bus.snoop_filter.hit_single_requests       205677                       # Number of requests hitting in the snoop filter with a single holder of the requested data.
system.tol2bus.snoop_filter.hit_single_snoops        96438                       # Number of snoops hitting in the snoop filter with a single holder of the requested data.
system.tol2bus.snoop_filter.tot_requests       412843                       # Total number of requests made to the snoop filter.
system.tol2bus.snoop_filter.tot_snoops          96438                       # Total number of snoops made to the snoop filter.
system.membus.pwrStateResidencyTicks::UNDEFINED 359103799978500                       # Cumulative time (in ticks) in various power states
system.membus.trans_dist::ReadResp             160643                       # Transaction distribution
system.membus.trans_dist::WritebackDirty        13314                       # Transaction distribution
system.membus.trans_dist::CleanEvict           145783                       # Transaction distribution
system.membus.trans_dist::ReadExReq              7331                       # Transaction distribution
system.membus.trans_dist::ReadExResp             7331                       # Transaction distribution
system.membus.trans_dist::ReadSharedReq        160644                       # Transaction distribution
system.membus.pkt_count_system.l2.mem_side::system.mem_ctrls.port       495046                       # Packet count per connected master and slave (bytes)
system.membus.pkt_count_system.l2.mem_side::total       495046                       # Packet count per connected master and slave (bytes)
system.membus.pkt_count::total                 495046                       # Packet count per connected master and slave (bytes)
system.membus.pkt_size_system.l2.mem_side::system.mem_ctrls.port     11602432                       # Cumulative packet size per connected master and slave (bytes)
system.membus.pkt_size_system.l2.mem_side::total     11602432                       # Cumulative packet size per connected master and slave (bytes)
system.membus.pkt_size::total                11602432                       # Cumulative packet size per connected master and slave (bytes)
system.membus.snoops                                0                       # Total snoops (count)
system.membus.snoopTraffic                          0                       # Total snoop traffic (bytes)
system.membus.snoop_fanout::samples            167975                       # Request fanout histogram
system.membus.snoop_fanout::mean                    0                       # Request fanout histogram
system.membus.snoop_fanout::stdev                   0                       # Request fanout histogram
system.membus.snoop_fanout::underflows              0      0.00%      0.00% # Request fanout histogram
system.membus.snoop_fanout::0                  167975    100.00%    100.00% # Request fanout histogram
system.membus.snoop_fanout::1                       0      0.00%    100.00% # Request fanout histogram
system.membus.snoop_fanout::overflows               0      0.00%    100.00% # Request fanout histogram
system.membus.snoop_fanout::min_value               0                       # Request fanout histogram
system.membus.snoop_fanout::max_value               0                       # Request fanout histogram
system.membus.snoop_fanout::total              167975                       # Request fanout histogram
system.membus.reqLayer2.occupancy           416811500                       # Layer occupancy (ticks)
system.membus.reqLayer2.utilization               4.5                       # Layer utilization (%)
system.membus.respLayer1.occupancy          899058750                       # Layer occupancy (ticks)
system.membus.respLayer1.utilization              9.7                       # Layer utilization (%)
system.switch_cpus.pwrStateResidencyTicks::OFF   9292138500                       # Cumulative time (in ticks) in various power states
system.switch_cpus.dtb.walker.pwrStateResidencyTicks::UNDEFINED 359103799978500                       # Cumulative time (in ticks) in various power states
system.switch_cpus.itb.walker.pwrStateResidencyTicks::UNDEFINED 359103799978500                       # Cumulative time (in ticks) in various power states
system.tol2bus.pwrStateResidencyTicks::UNDEFINED 359103799978500                       # Cumulative time (in ticks) in various power states
system.tol2bus.trans_dist::ReadResp            197109                       # Transaction distribution
system.tol2bus.trans_dist::WritebackDirty        54683                       # Transaction distribution
system.tol2bus.trans_dist::WritebackClean          478                       # Transaction distribution
system.tol2bus.trans_dist::CleanEvict          321891                       # Transaction distribution
system.tol2bus.trans_dist::ReadExReq            10055                       # Transaction distribution
system.tol2bus.trans_dist::ReadExResp           10055                       # Transaction distribution
system.tol2bus.trans_dist::ReadCleanReq           941                       # Transaction distribution
system.tol2bus.trans_dist::ReadSharedReq       196170                       # Transaction distribution
system.tol2bus.pkt_count_system.cpu.icache.mem_side::system.l2.cpu_side         2360                       # Packet count per connected master and slave (bytes)
system.tol2bus.pkt_count_system.cpu.dcache.mem_side::system.l2.cpu_side       617647                       # Packet count per connected master and slave (bytes)
system.tol2bus.pkt_count::total                620007                       # Packet count per connected master and slave (bytes)
system.tol2bus.pkt_size_system.cpu.icache.mem_side::system.l2.cpu_side        90816                       # Cumulative packet size per connected master and slave (bytes)
system.tol2bus.pkt_size_system.cpu.dcache.mem_side::system.l2.cpu_side     15845888                       # Cumulative packet size per connected master and slave (bytes)
system.tol2bus.pkt_size::total               15936704                       # Cumulative packet size per connected master and slave (bytes)
system.tol2bus.snoops                          171375                       # Total snoops (count)
system.tol2bus.snoopTraffic                    852096                       # Total snoop traffic (bytes)
system.tol2bus.snoop_fanout::samples           378541                       # Request fanout histogram
system.tol2bus.snoop_fanout::mean            0.254762                       # Request fanout histogram
system.tol2bus.snoop_fanout::stdev           0.435728                       # Request fanout histogram
system.tol2bus.snoop_fanout::underflows             0      0.00%      0.00% # Request fanout histogram
system.tol2bus.snoop_fanout::0                 282103     74.52%     74.52% # Request fanout histogram
system.tol2bus.snoop_fanout::1                  96438     25.48%    100.00% # Request fanout histogram
system.tol2bus.snoop_fanout::2                      0      0.00%    100.00% # Request fanout histogram
system.tol2bus.snoop_fanout::3                      0      0.00%    100.00% # Request fanout histogram
system.tol2bus.snoop_fanout::4                      0      0.00%    100.00% # Request fanout histogram
system.tol2bus.snoop_fanout::overflows              0      0.00%    100.00% # Request fanout histogram
system.tol2bus.snoop_fanout::min_value              0                       # Request fanout histogram
system.tol2bus.snoop_fanout::max_value              1                       # Request fanout histogram
system.tol2bus.snoop_fanout::total             378541                       # Request fanout histogram
system.tol2bus.reqLayer0.occupancy          248266000                       # Layer occupancy (ticks)
system.tol2bus.reqLayer0.utilization              2.7                       # Layer utilization (%)
system.tol2bus.respLayer1.occupancy         309330000                       # Layer occupancy (ticks)
system.tol2bus.respLayer1.utilization             3.3                       # Layer utilization (%)
system.tol2bus.respLayer0.occupancy           1408999                       # Layer occupancy (ticks)
system.tol2bus.respLayer0.utilization             0.0                       # Layer utilization (%)
system.voltage_domain.voltage                       1                       # Voltage in Volts
system.clk_domain.clock                          1000                       # Clock period in ticks
system.l2.pwrStateResidencyTicks::UNDEFINED 359103799978500                       # Cumulative time (in ticks) in various power states
system.l2.demand_hits::.switch_cpus.inst           57                       # number of demand (read+write) hits
system.l2.demand_hits::.switch_cpus.data        39133                       # number of demand (read+write) hits
system.l2.demand_hits::total                    39190                       # number of demand (read+write) hits
system.l2.overall_hits::.switch_cpus.inst           57                       # number of overall hits
system.l2.overall_hits::.switch_cpus.data        39133                       # number of overall hits
system.l2.overall_hits::total                   39190                       # number of overall hits
system.l2.demand_misses::.cpu.inst                  2                       # number of demand (read+write) misses
system.l2.demand_misses::.cpu.data                  3                       # number of demand (read+write) misses
system.l2.demand_misses::.switch_cpus.inst          882                       # number of demand (read+write) misses
system.l2.demand_misses::.switch_cpus.data       167089                       # number of demand (read+write) misses
system.l2.demand_misses::total                 167976                       # number of demand (read+write) misses
system.l2.overall_misses::.cpu.inst                 2                       # number of overall misses
system.l2.overall_misses::.cpu.data                 3                       # number of overall misses
system.l2.overall_misses::.switch_cpus.inst          882                       # number of overall misses
system.l2.overall_misses::.switch_cpus.data       167089                       # number of overall misses
system.l2.overall_misses::total                167976                       # number of overall misses
system.l2.demand_miss_latency::.switch_cpus.inst     73811000                       # number of demand (read+write) miss cycles
system.l2.demand_miss_latency::.switch_cpus.data  13814404000                       # number of demand (read+write) miss cycles
system.l2.demand_miss_latency::total      13888215000                       # number of demand (read+write) miss cycles
system.l2.overall_miss_latency::.switch_cpus.inst     73811000                       # number of overall miss cycles
system.l2.overall_miss_latency::.switch_cpus.data  13814404000                       # number of overall miss cycles
system.l2.overall_miss_latency::total     13888215000                       # number of overall miss cycles
system.l2.demand_accesses::.cpu.inst                2                       # number of demand (read+write) accesses
system.l2.demand_accesses::.cpu.data                3                       # number of demand (read+write) accesses
system.l2.demand_accesses::.switch_cpus.inst          939                       # number of demand (read+write) accesses
system.l2.demand_accesses::.switch_cpus.data       206222                       # number of demand (read+write) accesses
system.l2.demand_accesses::total               207166                       # number of demand (read+write) accesses
system.l2.overall_accesses::.cpu.inst               2                       # number of overall (read+write) accesses
system.l2.overall_accesses::.cpu.data               3                       # number of overall (read+write) accesses
system.l2.overall_accesses::.switch_cpus.inst          939                       # number of overall (read+write) accesses
system.l2.overall_accesses::.switch_cpus.data       206222                       # number of overall (read+write) accesses
system.l2.overall_accesses::total              207166                       # number of overall (read+write) accesses
system.l2.demand_miss_rate::.cpu.inst               1                       # miss rate for demand accesses
system.l2.demand_miss_rate::.cpu.data               1                       # miss rate for demand accesses
system.l2.demand_miss_rate::.switch_cpus.inst     0.939297                       # miss rate for demand accesses
system.l2.demand_miss_rate::.switch_cpus.data     0.810238                       # miss rate for demand accesses
system.l2.demand_miss_rate::total            0.810828                       # miss rate for demand accesses
system.l2.overall_miss_rate::.cpu.inst              1                       # miss rate for overall accesses
system.l2.overall_miss_rate::.cpu.data              1                       # miss rate for overall accesses
system.l2.overall_miss_rate::.switch_cpus.inst     0.939297                       # miss rate for overall accesses
system.l2.overall_miss_rate::.switch_cpus.data     0.810238                       # miss rate for overall accesses
system.l2.overall_miss_rate::total           0.810828                       # miss rate for overall accesses
system.l2.demand_avg_miss_latency::.switch_cpus.inst 83685.941043                       # average overall miss latency
system.l2.demand_avg_miss_latency::.switch_cpus.data 82676.920683                       # average overall miss latency
system.l2.demand_avg_miss_latency::total 82679.757823                       # average overall miss latency
system.l2.overall_avg_miss_latency::.switch_cpus.inst 83685.941043                       # average overall miss latency
system.l2.overall_avg_miss_latency::.switch_cpus.data 82676.920683                       # average overall miss latency
system.l2.overall_avg_miss_latency::total 82679.757823                       # average overall miss latency
system.l2.blocked_cycles::no_mshrs                  0                       # number of cycles access was blocked
system.l2.blocked_cycles::no_targets                0                       # number of cycles access was blocked
system.l2.blocked::no_mshrs                         0                       # number of cycles access was blocked
system.l2.blocked::no_targets                       0                       # number of cycles access was blocked
system.l2.avg_blocked_cycles::no_mshrs            nan                       # average number of cycles each access was blocked
system.l2.avg_blocked_cycles::no_targets          nan                       # average number of cycles each access was blocked
system.l2.writebacks::.writebacks               13314                       # number of writebacks
system.l2.writebacks::total                     13314                       # number of writebacks
system.l2.demand_mshr_misses::.switch_cpus.inst          882                       # number of demand (read+write) MSHR misses
system.l2.demand_mshr_misses::.switch_cpus.data       167089                       # number of demand (read+write) MSHR misses
system.l2.demand_mshr_misses::total            167971                       # number of demand (read+write) MSHR misses
system.l2.overall_mshr_misses::.switch_cpus.inst          882                       # number of overall MSHR misses
system.l2.overall_mshr_misses::.switch_cpus.data       167089                       # number of overall MSHR misses
system.l2.overall_mshr_misses::total           167971                       # number of overall MSHR misses
system.l2.demand_mshr_miss_latency::.switch_cpus.inst     64991000                       # number of demand (read+write) MSHR miss cycles
system.l2.demand_mshr_miss_latency::.switch_cpus.data  12143534000                       # number of demand (read+write) MSHR miss cycles
system.l2.demand_mshr_miss_latency::total  12208525000                       # number of demand (read+write) MSHR miss cycles
system.l2.overall_mshr_miss_latency::.switch_cpus.inst     64991000                       # number of overall MSHR miss cycles
system.l2.overall_mshr_miss_latency::.switch_cpus.data  12143534000                       # number of overall MSHR miss cycles
system.l2.overall_mshr_miss_latency::total  12208525000                       # number of overall MSHR miss cycles
system.l2.demand_mshr_miss_rate::.switch_cpus.inst     0.939297                       # mshr miss rate for demand accesses
system.l2.demand_mshr_miss_rate::.switch_cpus.data     0.810238                       # mshr miss rate for demand accesses
system.l2.demand_mshr_miss_rate::total       0.810804                       # mshr miss rate for demand accesses
system.l2.overall_mshr_miss_rate::.switch_cpus.inst     0.939297                       # mshr miss rate for overall accesses
system.l2.overall_mshr_miss_rate::.switch_cpus.data     0.810238                       # mshr miss rate for overall accesses
system.l2.overall_mshr_miss_rate::total      0.810804                       # mshr miss rate for overall accesses
system.l2.demand_avg_mshr_miss_latency::.switch_cpus.inst 73685.941043                       # average overall mshr miss latency
system.l2.demand_avg_mshr_miss_latency::.switch_cpus.data 72677.040380                       # average overall mshr miss latency
system.l2.demand_avg_mshr_miss_latency::total 72682.338023                       # average overall mshr miss latency
system.l2.overall_avg_mshr_miss_latency::.switch_cpus.inst 73685.941043                       # average overall mshr miss latency
system.l2.overall_avg_mshr_miss_latency::.switch_cpus.data 72677.040380                       # average overall mshr miss latency
system.l2.overall_avg_mshr_miss_latency::total 72682.338023                       # average overall mshr miss latency
system.l2.replacements                         171375                       # number of replacements
system.l2.WritebackDirty_hits::.writebacks        41369                       # number of WritebackDirty hits
system.l2.WritebackDirty_hits::total            41369                       # number of WritebackDirty hits
system.l2.WritebackDirty_accesses::.writebacks        41369                       # number of WritebackDirty accesses(hits+misses)
system.l2.WritebackDirty_accesses::total        41369                       # number of WritebackDirty accesses(hits+misses)
system.l2.WritebackClean_hits::.writebacks          478                       # number of WritebackClean hits
system.l2.WritebackClean_hits::total              478                       # number of WritebackClean hits
system.l2.WritebackClean_accesses::.writebacks          478                       # number of WritebackClean accesses(hits+misses)
system.l2.WritebackClean_accesses::total          478                       # number of WritebackClean accesses(hits+misses)
system.l2.CleanEvict_mshr_misses::.writebacks        84161                       # number of CleanEvict MSHR misses
system.l2.CleanEvict_mshr_misses::total         84161                       # number of CleanEvict MSHR misses
system.l2.CleanEvict_mshr_miss_rate::.writebacks          inf                       # mshr miss rate for CleanEvict accesses
system.l2.CleanEvict_mshr_miss_rate::total          inf                       # mshr miss rate for CleanEvict accesses
system.l2.ReadExReq_hits::.switch_cpus.data         2724                       # number of ReadExReq hits
system.l2.ReadExReq_hits::total                  2724                       # number of ReadExReq hits
system.l2.ReadExReq_misses::.switch_cpus.data         7331                       # number of ReadExReq misses
system.l2.ReadExReq_misses::total                7331                       # number of ReadExReq misses
system.l2.ReadExReq_miss_latency::.switch_cpus.data    590580000                       # number of ReadExReq miss cycles
system.l2.ReadExReq_miss_latency::total     590580000                       # number of ReadExReq miss cycles
system.l2.ReadExReq_accesses::.switch_cpus.data        10055                       # number of ReadExReq accesses(hits+misses)
system.l2.ReadExReq_accesses::total             10055                       # number of ReadExReq accesses(hits+misses)
system.l2.ReadExReq_miss_rate::.switch_cpus.data     0.729090                       # miss rate for ReadExReq accesses
system.l2.ReadExReq_miss_rate::total         0.729090                       # miss rate for ReadExReq accesses
system.l2.ReadExReq_avg_miss_latency::.switch_cpus.data 80559.268858                       # average ReadExReq miss latency
system.l2.ReadExReq_avg_miss_latency::total 80559.268858                       # average ReadExReq miss latency
system.l2.ReadExReq_mshr_misses::.switch_cpus.data         7331                       # number of ReadExReq MSHR misses
system.l2.ReadExReq_mshr_misses::total           7331                       # number of ReadExReq MSHR misses
system.l2.ReadExReq_mshr_miss_latency::.switch_cpus.data    517270000                       # number of ReadExReq MSHR miss cycles
system.l2.ReadExReq_mshr_miss_latency::total    517270000                       # number of ReadExReq MSHR miss cycles
system.l2.ReadExReq_mshr_miss_rate::.switch_cpus.data     0.729090                       # mshr miss rate for ReadExReq accesses
system.l2.ReadExReq_mshr_miss_rate::total     0.729090                       # mshr miss rate for ReadExReq accesses
system.l2.ReadExReq_avg_mshr_miss_latency::.switch_cpus.data 70559.268858                       # average ReadExReq mshr miss latency
system.l2.ReadExReq_avg_mshr_miss_latency::total 70559.268858                       # average ReadExReq mshr miss latency
system.l2.ReadCleanReq_hits::.switch_cpus.inst           57                       # number of ReadCleanReq hits
system.l2.ReadCleanReq_hits::total                 57                       # number of ReadCleanReq hits
system.l2.ReadCleanReq_misses::.cpu.inst            2                       # number of ReadCleanReq misses
system.l2.ReadCleanReq_misses::.switch_cpus.inst          882                       # number of ReadCleanReq misses
system.l2.ReadCleanReq_misses::total              884                       # number of ReadCleanReq misses
system.l2.ReadCleanReq_miss_latency::.switch_cpus.inst     73811000                       # number of ReadCleanReq miss cycles
system.l2.ReadCleanReq_miss_latency::total     73811000                       # number of ReadCleanReq miss cycles
system.l2.ReadCleanReq_accesses::.cpu.inst            2                       # number of ReadCleanReq accesses(hits+misses)
system.l2.ReadCleanReq_accesses::.switch_cpus.inst          939                       # number of ReadCleanReq accesses(hits+misses)
system.l2.ReadCleanReq_accesses::total            941                       # number of ReadCleanReq accesses(hits+misses)
system.l2.ReadCleanReq_miss_rate::.cpu.inst            1                       # miss rate for ReadCleanReq accesses
system.l2.ReadCleanReq_miss_rate::.switch_cpus.inst     0.939297                       # miss rate for ReadCleanReq accesses
system.l2.ReadCleanReq_miss_rate::total      0.939426                       # miss rate for ReadCleanReq accesses
system.l2.ReadCleanReq_avg_miss_latency::.switch_cpus.inst 83685.941043                       # average ReadCleanReq miss latency
[...]
system.cpu.icache.tags.data_accesses         13945596                       # Number of data accesses
system.cpu.dtb.walker.pwrStateResidencyTicks::UNDEFINED 359131771015500                       # Cumulative time (in ticks) in various power states
system.cpu.interrupts.clk_domain.clock           8000                       # Clock period in ticks
system.cpu.itb_walker_cache.pwrStateResidencyTicks::UNDEFINED 359131771015500                       # Cumulative time (in ticks) in various power states
system.cpu.itb_walker_cache.blocked_cycles::no_mshrs            0                       # number of cycles access was blocked
system.cpu.itb_walker_cache.blocked_cycles::no_targets            0                       # number of cycles access was blocked
system.cpu.itb_walker_cache.blocked::no_mshrs            0                       # number of cycles access was blocked
system.cpu.itb_walker_cache.blocked::no_targets            0                       # number of cycles access was blocked
system.cpu.itb_walker_cache.avg_blocked_cycles::no_mshrs          nan                       # average number of cycles each access was blocked
system.cpu.itb_walker_cache.avg_blocked_cycles::no_targets          nan                       # average number of cycles each access was blocked
system.cpu.itb_walker_cache.replacements            0                       # number of replacements
system.cpu.itb_walker_cache.tags.pwrStateResidencyTicks::UNDEFINED 359131771015500                       # Cumulative time (in ticks) in various power states
system.cpu.itb_walker_cache.tags.tagsinuse            0                       # Cycle average of tags in use
system.cpu.itb_walker_cache.tags.total_refs            0                       # Total number of references to valid blocks.
system.cpu.itb_walker_cache.tags.sampled_refs            0                       # Sample count of references to valid blocks.
system.cpu.itb_walker_cache.tags.avg_refs          nan                       # Average number of references to valid blocks.
system.cpu.itb_walker_cache.tags.warmup_cycle            0                       # Cycle when the warmup percentage was hit.
system.cpu.itb_walker_cache.tags.tag_accesses            0                       # Number of tag accesses
system.cpu.itb_walker_cache.tags.data_accesses            0                       # Number of data accesses
system.cpu.itb.walker.pwrStateResidencyTicks::UNDEFINED 359131771015500                       # Cumulative time (in ticks) in various power states
system.cpu.dtb_walker_cache.pwrStateResidencyTicks::UNDEFINED 359131771015500                       # Cumulative time (in ticks) in various power states
system.cpu.dtb_walker_cache.blocked_cycles::no_mshrs            0                       # number of cycles access was blocked
system.cpu.dtb_walker_cache.blocked_cycles::no_targets            0                       # number of cycles access was blocked
system.cpu.dtb_walker_cache.blocked::no_mshrs            0                       # number of cycles access was blocked
system.cpu.dtb_walker_cache.blocked::no_targets            0                       # number of cycles access was blocked
system.cpu.dtb_walker_cache.avg_blocked_cycles::no_mshrs          nan                       # average number of cycles each access was blocked
system.cpu.dtb_walker_cache.avg_blocked_cycles::no_targets          nan                       # average number of cycles each access was blocked
system.cpu.dtb_walker_cache.replacements            0                       # number of replacements
system.cpu.dtb_walker_cache.tags.pwrStateResidencyTicks::UNDEFINED 359131771015500                       # Cumulative time (in ticks) in various power states
system.cpu.dtb_walker_cache.tags.tagsinuse            0                       # Cycle average of tags in use
system.cpu.dtb_walker_cache.tags.total_refs            0                       # Total number of references to valid blocks.
system.cpu.dtb_walker_cache.tags.sampled_refs            0                       # Sample count of references to valid blocks.
system.cpu.dtb_walker_cache.tags.avg_refs          nan                       # Average number of references to valid blocks.
system.cpu.dtb_walker_cache.tags.warmup_cycle            0                       # Cycle when the warmup percentage was hit.
system.cpu.dtb_walker_cache.tags.tag_accesses            0                       # Number of tag accesses
system.cpu.dtb_walker_cache.tags.data_accesses            0                       # Number of data accesses
system.cpu.dcache.pwrStateResidencyTicks::UNDEFINED 359131771015500                       # Cumulative time (in ticks) in various power states
system.cpu.dcache.demand_hits::.cpu.data            1                       # number of demand (read+write) hits
system.cpu.dcache.demand_hits::.switch_cpus.data     10719969                       # number of demand (read+write) hits
system.cpu.dcache.demand_hits::total         10719970                       # number of demand (read+write) hits
system.cpu.dcache.overall_hits::.cpu.data            1                       # number of overall hits
system.cpu.dcache.overall_hits::.switch_cpus.data     10719969                       # number of overall hits
system.cpu.dcache.overall_hits::total        10719970                       # number of overall hits
system.cpu.dcache.demand_misses::.cpu.data            3                       # number of demand (read+write) misses
system.cpu.dcache.demand_misses::.switch_cpus.data      3239328                       # number of demand (read+write) misses
system.cpu.dcache.demand_misses::total        3239331                       # number of demand (read+write) misses
system.cpu.dcache.overall_misses::.cpu.data            3                       # number of overall misses
system.cpu.dcache.overall_misses::.switch_cpus.data      3239328                       # number of overall misses
system.cpu.dcache.overall_misses::total       3239331                       # number of overall misses
system.cpu.dcache.demand_miss_latency::.switch_cpus.data 216966021369                       # number of demand (read+write) miss cycles
system.cpu.dcache.demand_miss_latency::total 216966021369                       # number of demand (read+write) miss cycles
system.cpu.dcache.overall_miss_latency::.switch_cpus.data 216966021369                       # number of overall miss cycles
system.cpu.dcache.overall_miss_latency::total 216966021369                       # number of overall miss cycles
system.cpu.dcache.demand_accesses::.cpu.data            4                       # number of demand (read+write) accesses
system.cpu.dcache.demand_accesses::.switch_cpus.data     13959297                       # number of demand (read+write) accesses
system.cpu.dcache.demand_accesses::total     13959301                       # number of demand (read+write) accesses
system.cpu.dcache.overall_accesses::.cpu.data            4                       # number of overall (read+write) accesses
system.cpu.dcache.overall_accesses::.switch_cpus.data     13959297                       # number of overall (read+write) accesses
system.cpu.dcache.overall_accesses::total     13959301                       # number of overall (read+write) accesses
system.cpu.dcache.demand_miss_rate::.cpu.data     0.750000                       # miss rate for demand accesses
system.cpu.dcache.demand_miss_rate::.switch_cpus.data     0.232055                       # miss rate for demand accesses
system.cpu.dcache.demand_miss_rate::total     0.232055                       # miss rate for demand accesses
system.cpu.dcache.overall_miss_rate::.cpu.data     0.750000                       # miss rate for overall accesses
system.cpu.dcache.overall_miss_rate::.switch_cpus.data     0.232055                       # miss rate for overall accesses
system.cpu.dcache.overall_miss_rate::total     0.232055                       # miss rate for overall accesses
system.cpu.dcache.demand_avg_miss_latency::.switch_cpus.data 66978.713291                       # average overall miss latency
system.cpu.dcache.demand_avg_miss_latency::total 66978.651261                       # average overall miss latency
system.cpu.dcache.overall_avg_miss_latency::.switch_cpus.data 66978.713291                       # average overall miss latency
system.cpu.dcache.overall_avg_miss_latency::total 66978.651261                       # average overall miss latency
system.cpu.dcache.blocked_cycles::no_mshrs      3788143                       # number of cycles access was blocked
system.cpu.dcache.blocked_cycles::no_targets          209                       # number of cycles access was blocked
system.cpu.dcache.blocked::no_mshrs            121397                       # number of cycles access was blocked
system.cpu.dcache.blocked::no_targets               6                       # number of cycles access was blocked
system.cpu.dcache.avg_blocked_cycles::no_mshrs    31.204585                       # average number of cycles each access was blocked
system.cpu.dcache.avg_blocked_cycles::no_targets    34.833333                       # average number of cycles each access was blocked
system.cpu.dcache.writebacks::.writebacks       199322                       # number of writebacks
system.cpu.dcache.writebacks::total            199322                       # number of writebacks
system.cpu.dcache.demand_mshr_hits::.switch_cpus.data      2405939                       # number of demand (read+write) MSHR hits
system.cpu.dcache.demand_mshr_hits::total      2405939                       # number of demand (read+write) MSHR hits
system.cpu.dcache.overall_mshr_hits::.switch_cpus.data      2405939                       # number of overall MSHR hits
system.cpu.dcache.overall_mshr_hits::total      2405939                       # number of overall MSHR hits
system.cpu.dcache.demand_mshr_misses::.switch_cpus.data       833389                       # number of demand (read+write) MSHR misses
system.cpu.dcache.demand_mshr_misses::total       833389                       # number of demand (read+write) MSHR misses
system.cpu.dcache.overall_mshr_misses::.switch_cpus.data       833389                       # number of overall MSHR misses
system.cpu.dcache.overall_mshr_misses::total       833389                       # number of overall MSHR misses
system.cpu.dcache.demand_mshr_miss_latency::.switch_cpus.data  58175662875                       # number of demand (read+write) MSHR miss cycles
system.cpu.dcache.demand_mshr_miss_latency::total  58175662875                       # number of demand (read+write) MSHR miss cycles
system.cpu.dcache.overall_mshr_miss_latency::.switch_cpus.data  58175662875                       # number of overall MSHR miss cycles
system.cpu.dcache.overall_mshr_miss_latency::total  58175662875                       # number of overall MSHR miss cycles
system.cpu.dcache.demand_mshr_miss_rate::.switch_cpus.data     0.059701                       # mshr miss rate for demand accesses
system.cpu.dcache.demand_mshr_miss_rate::total     0.059701                       # mshr miss rate for demand accesses
system.cpu.dcache.overall_mshr_miss_rate::.switch_cpus.data     0.059701                       # mshr miss rate for overall accesses
system.cpu.dcache.overall_mshr_miss_rate::total     0.059701                       # mshr miss rate for overall accesses
system.cpu.dcache.demand_avg_mshr_miss_latency::.switch_cpus.data 69806.132400                       # average overall mshr miss latency
system.cpu.dcache.demand_avg_mshr_miss_latency::total 69806.132400                       # average overall mshr miss latency
system.cpu.dcache.overall_avg_mshr_miss_latency::.switch_cpus.data 69806.132400                       # average overall mshr miss latency
system.cpu.dcache.overall_avg_mshr_miss_latency::total 69806.132400                       # average overall mshr miss latency
system.cpu.dcache.replacements                 832367                       # number of replacements
system.cpu.dcache.ReadReq_hits::.cpu.data            1                       # number of ReadReq hits
system.cpu.dcache.ReadReq_hits::.switch_cpus.data      9382111                       # number of ReadReq hits
system.cpu.dcache.ReadReq_hits::total         9382112                       # number of ReadReq hits
system.cpu.dcache.ReadReq_misses::.cpu.data            3                       # number of ReadReq misses
system.cpu.dcache.ReadReq_misses::.switch_cpus.data      3197913                       # number of ReadReq misses
system.cpu.dcache.ReadReq_misses::total       3197916                       # number of ReadReq misses
system.cpu.dcache.ReadReq_miss_latency::.switch_cpus.data 214352454000                       # number of ReadReq miss cycles
system.cpu.dcache.ReadReq_miss_latency::total 214352454000                       # number of ReadReq miss cycles
system.cpu.dcache.ReadReq_accesses::.cpu.data            4                       # number of ReadReq accesses(hits+misses)
system.cpu.dcache.ReadReq_accesses::.switch_cpus.data     12580024                       # number of ReadReq accesses(hits+misses)
system.cpu.dcache.ReadReq_accesses::total     12580028                       # number of ReadReq accesses(hits+misses)
system.cpu.dcache.ReadReq_miss_rate::.cpu.data     0.750000                       # miss rate for ReadReq accesses
system.cpu.dcache.ReadReq_miss_rate::.switch_cpus.data     0.254206                       # miss rate for ReadReq accesses
system.cpu.dcache.ReadReq_miss_rate::total     0.254206                       # miss rate for ReadReq accesses
system.cpu.dcache.ReadReq_avg_miss_latency::.switch_cpus.data 67028.857258                       # average ReadReq miss latency
system.cpu.dcache.ReadReq_avg_miss_latency::total 67028.794377                       # average ReadReq miss latency
system.cpu.dcache.ReadReq_mshr_hits::.switch_cpus.data      2405614                       # number of ReadReq MSHR hits
system.cpu.dcache.ReadReq_mshr_hits::total      2405614                       # number of ReadReq MSHR hits
system.cpu.dcache.ReadReq_mshr_misses::.switch_cpus.data       792299                       # number of ReadReq MSHR misses
system.cpu.dcache.ReadReq_mshr_misses::total       792299                       # number of ReadReq MSHR misses
system.cpu.dcache.ReadReq_mshr_miss_latency::.switch_cpus.data  55620101500                       # number of ReadReq MSHR miss cycles
system.cpu.dcache.ReadReq_mshr_miss_latency::total  55620101500                       # number of ReadReq MSHR miss cycles
system.cpu.dcache.ReadReq_mshr_miss_rate::.switch_cpus.data     0.062981                       # mshr miss rate for ReadReq accesses
system.cpu.dcache.ReadReq_mshr_miss_rate::total     0.062981                       # mshr miss rate for ReadReq accesses
system.cpu.dcache.ReadReq_avg_mshr_miss_latency::.switch_cpus.data 70200.898272                       # average ReadReq mshr miss latency
system.cpu.dcache.ReadReq_avg_mshr_miss_latency::total 70200.898272                       # average ReadReq mshr miss latency
system.cpu.dcache.WriteReq_hits::.switch_cpus.data      1337858                       # number of WriteReq hits
system.cpu.dcache.WriteReq_hits::total        1337858                       # number of WriteReq hits
system.cpu.dcache.WriteReq_misses::.switch_cpus.data        41415                       # number of WriteReq misses
system.cpu.dcache.WriteReq_misses::total        41415                       # number of WriteReq misses
system.cpu.dcache.WriteReq_miss_latency::.switch_cpus.data   2613567369                       # number of WriteReq miss cycles
system.cpu.dcache.WriteReq_miss_latency::total   2613567369                       # number of WriteReq miss cycles
system.cpu.dcache.WriteReq_accesses::.switch_cpus.data      1379273                       # number of WriteReq accesses(hits+misses)
system.cpu.dcache.WriteReq_accesses::total      1379273                       # number of WriteReq accesses(hits+misses)
system.cpu.dcache.WriteReq_miss_rate::.switch_cpus.data     0.030027                       # miss rate for WriteReq accesses
system.cpu.dcache.WriteReq_miss_rate::total     0.030027                       # miss rate for WriteReq accesses
system.cpu.dcache.WriteReq_avg_miss_latency::.switch_cpus.data 63106.781818                       # average WriteReq miss latency
system.cpu.dcache.WriteReq_avg_miss_latency::total 63106.781818                       # average WriteReq miss latency
system.cpu.dcache.WriteReq_mshr_hits::.switch_cpus.data          325                       # number of WriteReq MSHR hits
system.cpu.dcache.WriteReq_mshr_hits::total          325                       # number of WriteReq MSHR hits
system.cpu.dcache.WriteReq_mshr_misses::.switch_cpus.data        41090                       # number of WriteReq MSHR misses
system.cpu.dcache.WriteReq_mshr_misses::total        41090                       # number of WriteReq MSHR misses
system.cpu.dcache.WriteReq_mshr_miss_latency::.switch_cpus.data   2555561375                       # number of WriteReq MSHR miss cycles
system.cpu.dcache.WriteReq_mshr_miss_latency::total   2555561375                       # number of WriteReq MSHR miss cycles
system.cpu.dcache.WriteReq_mshr_miss_rate::.switch_cpus.data     0.029791                       # mshr miss rate for WriteReq accesses
system.cpu.dcache.WriteReq_mshr_miss_rate::total     0.029791                       # mshr miss rate for WriteReq accesses
system.cpu.dcache.WriteReq_avg_mshr_miss_latency::.switch_cpus.data 62194.241300                       # average WriteReq mshr miss latency
system.cpu.dcache.WriteReq_avg_mshr_miss_latency::total 62194.241300                       # average WriteReq mshr miss latency
system.cpu.dcache.tags.pwrStateResidencyTicks::UNDEFINED 359131771015500                       # Cumulative time (in ticks) in various power states
system.cpu.dcache.tags.tagsinuse             0.106169                       # Cycle average of tags in use
system.cpu.dcache.tags.total_refs            11553361                       # Total number of references to valid blocks.
system.cpu.dcache.tags.sampled_refs            833391                       # Sample count of references to valid blocks.
system.cpu.dcache.tags.avg_refs             13.863074                       # Average number of references to valid blocks.
system.cpu.dcache.tags.warmup_cycle      359094507845000                       # Cycle when the warmup percentage was hit.
system.cpu.dcache.tags.occ_blocks::.cpu.data     0.000002                       # Average occupied blocks per requestor
system.cpu.dcache.tags.occ_blocks::.switch_cpus.data     0.106167                       # Average occupied blocks per requestor
system.cpu.dcache.tags.occ_percent::.cpu.data     0.000000                       # Average percentage of cache occupancy
system.cpu.dcache.tags.occ_percent::.switch_cpus.data     0.000104                       # Average percentage of cache occupancy
system.cpu.dcache.tags.occ_percent::total     0.000104                       # Average percentage of cache occupancy
system.cpu.dcache.tags.occ_task_id_blocks::1024         1024                       # Occupied blocks per task id
system.cpu.dcache.tags.age_task_id_blocks_1024::0          242                       # Occupied blocks per task id
system.cpu.dcache.tags.age_task_id_blocks_1024::1          709                       # Occupied blocks per task id
system.cpu.dcache.tags.age_task_id_blocks_1024::2           73                       # Occupied blocks per task id
system.cpu.dcache.tags.occ_task_id_percent::1024            1                       # Percentage of cache occupancy per task id
system.cpu.dcache.tags.tag_accesses          28751993                       # Number of tag accesses
system.cpu.dcache.tags.data_accesses         28751993                       # Number of data accesses

---------- End Simulation Statistics   ----------
