
---------- Begin Simulation Statistics ----------
final_tick                               926051987069000                       # Number of ticks from beginning of simulation (restored from checkpoints and never reset)
host_inst_rate                                  22416                       # Simulator instruction rate (inst/s)
host_mem_usage                                 829064                       # Number of bytes of host memory used
host_op_rate                                    37714                       # Simulator op (including micro ops) rate (op/s)
host_seconds                                   446.12                       # Real time elapsed on the host
host_tick_rate                               27758963                       # Simulator tick rate (ticks/s)
sim_freq                                 1000000000000                       # Frequency of simulated ticks
sim_insts                                    10000009                       # Number of instructions simulated
sim_ops                                      16825012                       # Number of ops (including micro ops) simulated
sim_seconds                                  0.012384                       # Number of seconds simulated
sim_ticks                                 12383786500                       # Number of ticks simulated
system.cpu.Branches                                 3                       # Number of branches fetched
system.cpu.committedInsts                           9                       # Number of instructions committed
system.cpu.committedOps                            18                       # Number of ops (including micro ops) committed
system.cpu.dtb.rdAccesses                           2                       # TLB accesses on read requests
system.cpu.dtb.rdMisses                             0                       # TLB misses on read requests
system.cpu.dtb.wrAccesses                           0                       # TLB accesses on write requests
system.cpu.dtb.wrMisses                             0                       # TLB misses on write requests
system.cpu.idle_fraction                            0                       # Percentage of idle cycles
system.cpu.itb.rdAccesses                           0                       # TLB accesses on read requests
system.cpu.itb.rdMisses                             0                       # TLB misses on read requests
system.cpu.itb.wrAccesses                          11                       # TLB accesses on write requests
system.cpu.itb.wrMisses                             0                       # TLB misses on write requests
system.cpu.not_idle_fraction                        1                       # Percentage of non-idle cycles
system.cpu.numCycles                               20                       # number of cpu cycles simulated
system.cpu.numWorkItemsCompleted                    0                       # number of work items this cpu completed
system.cpu.numWorkItemsStarted                      0                       # number of work items this cpu started
system.cpu.num_busy_cycles                         20                       # Number of busy cycles
system.cpu.num_cc_register_reads                   15                       # number of times the CC registers were read
system.cpu.num_cc_register_writes                   8                       # number of times the CC registers were written
system.cpu.num_conditional_control_insts            3                       # number of instructions that are conditional controls
system.cpu.num_fp_alu_accesses                      0                       # Number of float alu accesses
system.cpu.num_fp_insts                             0                       # number of float instructions
system.cpu.num_fp_register_reads                    0                       # number of times the floating registers were read
system.cpu.num_fp_register_writes                   0                       # number of times the floating registers were written
system.cpu.num_func_calls                           0                       # number of times a function call or return occured
system.cpu.num_idle_cycles                          0                       # Number of idle cycles
system.cpu.num_int_alu_accesses                    18                       # Number of integer alu accesses
system.cpu.num_int_insts                           18                       # number of integer instructions
system.cpu.num_int_register_reads                  29                       # number of times the integer registers were read
system.cpu.num_int_register_writes                 15                       # number of times the integer registers were written
system.cpu.num_load_insts                           2                       # Number of load instructions
system.cpu.num_mem_refs                             2                       # number of memory refs
system.cpu.num_store_insts                          0                       # Number of store instructions
system.cpu.num_vec_alu_accesses                     0                       # Number of vector alu accesses
system.cpu.num_vec_insts                            0                       # number of vector instructions
system.cpu.num_vec_register_reads                   0                       # number of times the vector registers were read
system.cpu.num_vec_register_writes                  0                       # number of times the vector registers were written
system.cpu.op_class::No_OpClass                     0      0.00%      0.00% # Class of executed instruction
system.cpu.op_class::IntAlu                        16     88.89%     88.89% # Class of executed instruction
system.cpu.op_class::IntMult                        0      0.00%     88.89% # Class of executed instruction
system.cpu.op_class::IntDiv                         0      0.00%     88.89% # Class of executed instruction
system.cpu.op_class::FloatAdd                       0      0.00%     88.89% # Class of executed instruction
system.cpu.op_class::FloatCmp                       0      0.00%     88.89% # Class of executed instruction
system.cpu.op_class::FloatCvt                       0      0.00%     88.89% # Class of executed instruction
system.cpu.op_class::FloatMult                      0      0.00%     88.89% # Class of executed instruction
system.cpu.op_class::FloatMultAcc                   0      0.00%     88.89% # Class of executed instruction
system.cpu.op_class::FloatDiv                       0      0.00%     88.89% # Class of executed instruction
system.cpu.op_class::FloatMisc                      0      0.00%     88.89% # Class of executed instruction
system.cpu.op_class::FloatSqrt                      0      0.00%     88.89% # Class of executed instruction
system.cpu.op_class::SimdAdd                        0      0.00%     88.89% # Class of executed instruction
system.cpu.op_class::SimdAddAcc                     0      0.00%     88.89% # Class of executed instruction
system.cpu.op_class::SimdAlu                        0      0.00%     88.89% # Class of executed instruction
system.cpu.op_class::SimdCmp                        0      0.00%     88.89% # Class of executed instruction
system.cpu.op_class::SimdCvt                        0      0.00%     88.89% # Class of executed instruction
system.cpu.op_class::SimdMisc                       0      0.00%     88.89% # Class of executed instruction
system.cpu.op_class::SimdMult                       0      0.00%     88.89% # Class of executed instruction
system.cpu.op_class::SimdMultAcc                    0      0.00%     88.89% # Class of executed instruction
system.cpu.op_class::SimdShift                      0      0.00%     88.89% # Class of executed instruction
system.cpu.op_class::SimdShiftAcc                   0      0.00%     88.89% # Class of executed instruction
system.cpu.op_class::SimdDiv                        0      0.00%     88.89% # Class of executed instruction
system.cpu.op_class::SimdSqrt                       0      0.00%     88.89% # Class of executed instruction
system.cpu.op_class::SimdFloatAdd                   0      0.00%     88.89% # Class of executed instruction
system.cpu.op_class::SimdFloatAlu                   0      0.00%     88.89% # Class of executed instruction
system.cpu.op_class::SimdFloatCmp                   0      0.00%     88.89% # Class of executed instruction
system.cpu.op_class::SimdFloatCvt                   0      0.00%     88.89% # Class of executed instruction
system.cpu.op_class::SimdFloatDiv                   0      0.00%     88.89% # Class of executed instruction
system.cpu.op_class::SimdFloatMisc                  0      0.00%     88.89% # Class of executed instruction
system.cpu.op_class::SimdFloatMult                  0      0.00%     88.89% # Class of executed instruction
system.cpu.op_class::SimdFloatMultAcc               0      0.00%     88.89% # Class of executed instruction
system.cpu.op_class::SimdFloatSqrt                  0      0.00%     88.89% # Class of executed instruction
system.cpu.op_class::SimdReduceAdd                  0      0.00%     88.89% # Class of executed instruction
system.cpu.op_class::SimdReduceAlu                  0      0.00%     88.89% # Class of executed instruction
system.cpu.op_class::SimdReduceCmp                  0      0.00%     88.89% # Class of executed instruction
system.cpu.op_class::SimdFloatReduceAdd             0      0.00%     88.89% # Class of executed instruction
system.cpu.op_class::SimdFloatReduceCmp             0      0.00%     88.89% # Class of executed instruction
system.cpu.op_class::SimdAes                        0      0.00%     88.89% # Class of executed instruction
system.cpu.op_class::SimdAesMix                     0      0.00%     88.89% # Class of executed instruction
system.cpu.op_class::SimdSha1Hash                   0      0.00%     88.89% # Class of executed instruction
system.cpu.op_class::SimdSha1Hash2                  0      0.00%     88.89% # Class of executed instruction
system.cpu.op_class::SimdSha256Hash                 0      0.00%     88.89% # Class of executed instruction
system.cpu.op_class::SimdSha256Hash2                0      0.00%     88.89% # Class of executed instruction
system.cpu.op_class::SimdShaSigma2                  0      0.00%     88.89% # Class of executed instruction
system.cpu.op_class::SimdShaSigma3                  0      0.00%     88.89% # Class of executed instruction
system.cpu.op_class::SimdPredAlu                    0      0.00%     88.89% # Class of executed instruction
system.cpu.op_class::MemRead                        2     11.11%    100.00% # Class of executed instruction
system.cpu.op_class::MemWrite                       0      0.00%    100.00% # Class of executed instruction
system.cpu.op_class::FloatMemRead                   0      0.00%    100.00% # Class of executed instruction
system.cpu.op_class::FloatMemWrite                  0      0.00%    100.00% # Class of executed instruction
system.cpu.op_class::IprAccess                      0      0.00%    100.00% # Class of executed instruction
system.cpu.op_class::InstPrefetch                   0      0.00%    100.00% # Class of executed instruction
system.cpu.op_class::total                         18                       # Class of executed instruction
system.cpu.workload.numSyscalls                     0                       # Number of system calls
system.membus.snoop_filter.hit_multi_requests            0                       # Number of requests hitting in the snoop filter with multiple (>1) holders of the requested data.
system.membus.snoop_filter.hit_multi_snoops            0                       # Number of snoops hitting in the snoop filter with multiple (>1) holders of the requested data.
system.membus.snoop_filter.hit_single_requests       263262                       # Number of requests hitting in the snoop filter with a single holder of the requested data.
system.membus.snoop_filter.hit_single_snoops            0                       # Number of snoops hitting in the snoop filter with a single holder of the requested data.
system.membus.snoop_filter.tot_requests        529098                       # Total number of requests made to the snoop filter.
system.membus.snoop_filter.tot_snoops               0                       # Total number of snoops made to the snoop filter.
system.switch_cpus.branchPred.BTBCorrect            0                       # Number of correct BTB predictions (this stat may not work properly.
system.switch_cpus.branchPred.BTBHitPct      0.000000                       # BTB Hit Percentage
system.switch_cpus.branchPred.BTBHits               0                       # Number of BTB hits
system.switch_cpus.branchPred.BTBLookups      5301412                       # Number of BTB lookups
system.switch_cpus.branchPred.RASInCorrect            0                       # Number of incorrect RAS predictions.
system.switch_cpus.branchPred.condIncorrect       585062                       # Number of conditional branches incorrect
system.switch_cpus.branchPred.condPredicted      6473400                       # Number of conditional branches predicted
system.switch_cpus.branchPred.indirectHits      3045673                       # Number of indirect target hits.
system.switch_cpus.branchPred.indirectLookups      5301412                       # Number of indirect predictor lookups.
system.switch_cpus.branchPred.indirectMisses      2255739                       # Number of indirect misses.
system.switch_cpus.branchPred.lookups         6497085                       # Number of BP lookups
system.switch_cpus.branchPred.usedRAS               3                       # Number of times the RAS was used to get a target.
system.switch_cpus.branchPredindirectMispredicted       276763                       # Number of mispredicted indirect branches.
system.switch_cpus.cc_regfile_reads          16843829                       # number of cc regfile reads
system.switch_cpus.cc_regfile_writes         12663151                       # number of cc regfile writes
system.switch_cpus.commit.amos                      0                       # Number of atomic instructions committed
system.switch_cpus.commit.branchMispredicts       585062                       # The number of times a branch was mispredicted
system.switch_cpus.commit.branches            2315914                       # Number of branches committed
system.switch_cpus.commit.bw_lim_events       1006937                       # number cycles where commit BW limit reached
system.switch_cpus.commit.commitSquashedInsts     21375809                       # The number of squashed insts skipped by commit
system.switch_cpus.commit.committedInsts     10000000                       # Number of instructions committed
system.switch_cpus.commit.committedOps       16824994                       # Number of ops (including micro ops) committed
system.switch_cpus.commit.committed_per_cycle::samples     21506837                       # Number of insts commited each cycle
system.switch_cpus.commit.committed_per_cycle::mean     0.782309                       # Number of insts commited each cycle
system.switch_cpus.commit.committed_per_cycle::stdev     1.976408                       # Number of insts commited each cycle
system.switch_cpus.commit.committed_per_cycle::underflows            0      0.00%      0.00% # Number of insts commited each cycle
system.switch_cpus.commit.committed_per_cycle::0     17104926     79.53%     79.53% # Number of insts commited each cycle
system.switch_cpus.commit.committed_per_cycle::1      1229666      5.72%     85.25% # Number of insts commited each cycle
system.switch_cpus.commit.committed_per_cycle::2       804306      3.74%     88.99% # Number of insts commited each cycle
system.switch_cpus.commit.committed_per_cycle::3       511585      2.38%     91.37% # Number of insts commited each cycle
system.switch_cpus.commit.committed_per_cycle::4       261571      1.22%     92.58% # Number of insts commited each cycle
system.switch_cpus.commit.committed_per_cycle::5       314524      1.46%     94.05% # Number of insts commited each cycle
system.switch_cpus.commit.committed_per_cycle::6       135693      0.63%     94.68% # Number of insts commited each cycle
system.switch_cpus.commit.committed_per_cycle::7       137629      0.64%     95.32% # Number of insts commited each cycle
system.switch_cpus.commit.committed_per_cycle::8      1006937      4.68%    100.00% # Number of insts commited each cycle
system.switch_cpus.commit.committed_per_cycle::overflows            0      0.00%    100.00% # Number of insts commited each cycle
system.switch_cpus.commit.committed_per_cycle::min_value            0                       # Number of insts commited each cycle
system.switch_cpus.commit.committed_per_cycle::max_value            8                       # Number of insts commited each cycle
system.switch_cpus.commit.committed_per_cycle::total     21506837                       # Number of insts commited each cycle
system.switch_cpus.commit.fp_insts              36688                       # Number of committed floating point instructions.
system.switch_cpus.commit.function_calls            0                       # Number of function calls committed.
system.switch_cpus.commit.int_insts          16806537                       # Number of committed integer instructions.
system.switch_cpus.commit.loads               1871375                       # Number of loads committed
system.switch_cpus.commit.membars                   0                       # Number of memory barriers committed
system.switch_cpus.commit.op_class_0::No_OpClass        18457      0.11%      0.11% # Class of committed instruction
system.switch_cpus.commit.op_class_0::IntAlu     14350129     85.29%     85.40% # Class of committed instruction
system.switch_cpus.commit.op_class_0::IntMult        10952      0.07%     85.47% # Class of committed instruction
system.switch_cpus.commit.op_class_0::IntDiv            0      0.00%     85.47% # Class of committed instruction
system.switch_cpus.commit.op_class_0::FloatAdd            0      0.00%     85.47% # Class of committed instruction
system.switch_cpus.commit.op_class_0::FloatCmp            0      0.00%     85.47% # Class of committed instruction
system.switch_cpus.commit.op_class_0::FloatCvt            0      0.00%     85.47% # Class of committed instruction
system.switch_cpus.commit.op_class_0::FloatMult            0      0.00%     85.47% # Class of committed instruction
system.switch_cpus.commit.op_class_0::FloatMultAcc            0      0.00%     85.47% # Class of committed instruction
system.switch_cpus.commit.op_class_0::FloatDiv            0      0.00%     85.47% # Class of committed instruction
system.switch_cpus.commit.op_class_0::FloatMisc            0      0.00%     85.47% # Class of committed instruction
system.switch_cpus.commit.op_class_0::FloatSqrt            0      0.00%     85.47% # Class of committed instruction
system.switch_cpus.commit.op_class_0::SimdAdd            0      0.00%     85.47% # Class of committed instruction
system.switch_cpus.commit.op_class_0::SimdAddAcc            0      0.00%     85.47% # Class of committed instruction
system.switch_cpus.commit.op_class_0::SimdAlu            0      0.00%     85.47% # Class of committed instruction
system.switch_cpus.commit.op_class_0::SimdCmp            0      0.00%     85.47% # Class of committed instruction
system.switch_cpus.commit.op_class_0::SimdCvt            0      0.00%     85.47% # Class of committed instruction
system.switch_cpus.commit.op_class_0::SimdMisc            0      0.00%     85.47% # Class of committed instruction
system.switch_cpus.commit.op_class_0::SimdMult            0      0.00%     85.47% # Class of committed instruction
system.switch_cpus.commit.op_class_0::SimdMultAcc            0      0.00%     85.47% # Class of committed instruction
system.switch_cpus.commit.op_class_0::SimdShift            0      0.00%     85.47% # Class of committed instruction
system.switch_cpus.commit.op_class_0::SimdShiftAcc            0      0.00%     85.47% # Class of committed instruction
system.switch_cpus.commit.op_class_0::SimdDiv            0      0.00%     85.47% # Class of committed instruction
system.switch_cpus.commit.op_class_0::SimdSqrt            0      0.00%     85.47% # Class of committed instruction
system.switch_cpus.commit.op_class_0::SimdFloatAdd            0      0.00%     85.47% # Class of committed instruction
system.switch_cpus.commit.op_class_0::SimdFloatAlu            0      0.00%     85.47% # Class of committed instruction
system.switch_cpus.commit.op_class_0::SimdFloatCmp            0      0.00%     85.47% # Class of committed instruction
system.switch_cpus.commit.op_class_0::SimdFloatCvt            0      0.00%     85.47% # Class of committed instruction
system.switch_cpus.commit.op_class_0::SimdFloatDiv            0      0.00%     85.47% # Class of committed instruction
system.switch_cpus.commit.op_class_0::SimdFloatMisc            0      0.00%     85.47% # Class of committed instruction
system.switch_cpus.commit.op_class_0::SimdFloatMult            0      0.00%     85.47% # Class of committed instruction
system.switch_cpus.commit.op_class_0::SimdFloatMultAcc            0      0.00%     85.47% # Class of committed instruction
system.switch_cpus.commit.op_class_0::SimdFloatSqrt            0      0.00%     85.47% # Class of committed instruction
system.switch_cpus.commit.op_class_0::SimdReduceAdd            0      0.00%     85.47% # Class of committed instruction
system.switch_cpus.commit.op_class_0::SimdReduceAlu            0      0.00%     85.47% # Class of committed instruction
system.switch_cpus.commit.op_class_0::SimdReduceCmp            0      0.00%     85.47% # Class of committed instruction
system.switch_cpus.commit.op_class_0::SimdFloatReduceAdd            0      0.00%     85.47% # Class of committed instruction
system.switch_cpus.commit.op_class_0::SimdFloatReduceCmp            0      0.00%     85.47% # Class of committed instruction
system.switch_cpus.commit.op_class_0::SimdAes            0      0.00%     85.47% # Class of committed instruction
system.switch_cpus.commit.op_class_0::SimdAesMix            0      0.00%     85.47% # Class of committed instruction
system.switch_cpus.commit.op_class_0::SimdSha1Hash            0      0.00%     85.47% # Class of committed instruction
system.switch_cpus.commit.op_class_0::SimdSha1Hash2            0      0.00%     85.47% # Class of committed instruction
system.switch_cpus.commit.op_class_0::SimdSha256Hash            0      0.00%     85.47% # Class of committed instruction
system.switch_cpus.commit.op_class_0::SimdSha256Hash2            0      0.00%     85.47% # Class of committed instruction
system.switch_cpus.commit.op_class_0::SimdShaSigma2            0      0.00%     85.47% # Class of committed instruction
system.switch_cpus.commit.op_class_0::SimdShaSigma3            0      0.00%     85.47% # Class of committed instruction
system.switch_cpus.commit.op_class_0::SimdPredAlu            0      0.00%     85.47% # Class of committed instruction
system.switch_cpus.commit.op_class_0::MemRead      1853031     11.01%     96.48% # Class of committed instruction
system.switch_cpus.commit.op_class_0::MemWrite       555737      3.30%     99.78% # Class of committed instruction
system.switch_cpus.commit.op_class_0::FloatMemRead        18344      0.11%     99.89% # Class of committed instruction
system.switch_cpus.commit.op_class_0::FloatMemWrite        18344      0.11%    100.00% # Class of committed instruction
system.switch_cpus.commit.op_class_0::IprAccess            0      0.00%    100.00% # Class of committed instruction
system.switch_cpus.commit.op_class_0::InstPrefetch            0      0.00%    100.00% # Class of committed instruction
system.switch_cpus.commit.op_class_0::total     16824994                       # Class of committed instruction
system.switch_cpus.commit.refs                2445456                       # Number of memory references committed
system.switch_cpus.commit.swp_count                 0                       # Number of s/w prefetches committed
system.switch_cpus.commit.vec_insts                 0                       # Number of committed Vector instructions.
system.switch_cpus.committedInsts            10000000                       # Number of Instructions Simulated
system.switch_cpus.committedOps              16824994                       # Number of Ops (including micro ops) Simulated
system.switch_cpus.cpi                       2.476755                       # CPI: Cycles Per Instruction
system.switch_cpus.cpi_total                 2.476755                       # CPI: Total CPI of All Threads
system.switch_cpus.decode.BlockedCycles      12779060                       # Number of cycles decode is blocked
system.switch_cpus.decode.DecodedInsts       45433946                       # Number of instructions handled by decode
system.switch_cpus.decode.IdleCycles          4060708                       # Number of cycles decode is idle
system.switch_cpus.decode.RunCycles           6631473                       # Number of cycles decode is running
system.switch_cpus.decode.SquashCycles         586740                       # Number of cycles decode is squashing
system.switch_cpus.decode.UnblockCycles        706876                       # Number of cycles decode is unblocking
system.switch_cpus.dtb.rdAccesses             3450039                       # TLB accesses on read requests
system.switch_cpus.dtb.rdMisses                370661                       # TLB misses on read requests
system.switch_cpus.dtb.wrAccesses             1081526                       # TLB accesses on write requests
system.switch_cpus.dtb.wrMisses                  3290                       # TLB misses on write requests
system.switch_cpus.fetch.Branches             6497085                       # Number of branches that fetch encountered
system.switch_cpus.fetch.CacheLines           4948245                       # Number of cache lines fetched
system.switch_cpus.fetch.Cycles              18926379                       # Number of cycles fetch has run and was not squashing or blocked
system.switch_cpus.fetch.IcacheSquashes        171032                       # Number of outstanding Icache misses that were squashed
system.switch_cpus.fetch.Insts               31049844                       # Number of instructions fetch has processed
system.switch_cpus.fetch.SquashCycles         1173480                       # Number of cycles fetch has spent squashing
system.switch_cpus.fetch.branchRate          0.262322                       # Number of branch fetches per cycle
system.switch_cpus.fetch.icacheStallCycles      5251743                       # Number of cycles fetch is stalled on an Icache miss
system.switch_cpus.fetch.predictedBranches      3045676                       # Number of branches that fetch has predicted taken
system.switch_cpus.fetch.rate                1.253650                       # Number of inst fetches per cycle
system.switch_cpus.fetch.rateDist::samples     24764862                       # Number of instructions fetched each cycle (Total)
system.switch_cpus.fetch.rateDist::mean      2.039551                       # Number of instructions fetched each cycle (Total)
system.switch_cpus.fetch.rateDist::stdev     3.118910                       # Number of instructions fetched each cycle (Total)
system.switch_cpus.fetch.rateDist::underflows            0      0.00%      0.00% # Number of instructions fetched each cycle (Total)
system.switch_cpus.fetch.rateDist::0         15765249     63.66%     63.66% # Number of instructions fetched each cycle (Total)
system.switch_cpus.fetch.rateDist::1           732675      2.96%     66.62% # Number of instructions fetched each cycle (Total)
system.switch_cpus.fetch.rateDist::2           934314      3.77%     70.39% # Number of instructions fetched each cycle (Total)
system.switch_cpus.fetch.rateDist::3          1016053      4.10%     74.49% # Number of instructions fetched each cycle (Total)
system.switch_cpus.fetch.rateDist::4           525862      2.12%     76.62% # Number of instructions fetched each cycle (Total)
system.switch_cpus.fetch.rateDist::5           457856      1.85%     78.47% # Number of instructions fetched each cycle (Total)
system.switch_cpus.fetch.rateDist::6          1039311      4.20%     82.66% # Number of instructions fetched each cycle (Total)
system.switch_cpus.fetch.rateDist::7           117182      0.47%     83.14% # Number of instructions fetched each cycle (Total)
system.switch_cpus.fetch.rateDist::8          4176360     16.86%    100.00% # Number of instructions fetched each cycle (Total)
system.switch_cpus.fetch.rateDist::overflows            0      0.00%    100.00% # Number of instructions fetched each cycle (Total)
system.switch_cpus.fetch.rateDist::min_value            0                       # Number of instructions fetched each cycle (Total)
system.switch_cpus.fetch.rateDist::max_value            8                       # Number of instructions fetched each cycle (Total)
system.switch_cpus.fetch.rateDist::total     24764862                       # Number of instructions fetched each cycle (Total)
system.switch_cpus.fp_regfile_reads             18409                       # number of floating regfile reads
system.switch_cpus.fp_regfile_writes            18643                       # number of floating regfile writes
system.switch_cpus.idleCycles                    2691                       # Total number of cycles that the CPU has spent unscheduled due to idling
system.switch_cpus.iew.branchMispredicts       660168                       # Number of branch mispredicts detected at execute
system.switch_cpus.iew.exec_branches          3769362                       # Number of branches executed
system.switch_cpus.iew.exec_nop                     0                       # number of nop insts executed
system.switch_cpus.iew.exec_rate             1.338583                       # Inst execution rate
system.switch_cpus.iew.exec_refs              5292848                       # number of memory reference insts executed
system.switch_cpus.iew.exec_stores            1080376                       # Number of stores executed
system.switch_cpus.iew.exec_swp                     0                       # number of swp insts executed
system.switch_cpus.iew.iewBlockCycles         3351360                       # Number of cycles IEW is blocking
system.switch_cpus.iew.iewDispLoadInsts       4226825                       # Number of dispatched load instructions
system.switch_cpus.iew.iewDispNonSpecInsts            0                       # Number of dispatched non-speculative instructions
system.switch_cpus.iew.iewDispSquashedInsts        65301                       # Number of squashed instructions skipped by dispatch
system.switch_cpus.iew.iewDispStoreInsts      1579148                       # Number of dispatched store instructions
system.switch_cpus.iew.iewDispatchedInsts     38200828                       # Number of instructions dispatched to IQ
system.switch_cpus.iew.iewExecLoadInsts       4212472                       # Number of load instructions executed
system.switch_cpus.iew.iewExecSquashedInsts      1294412                       # Number of squashed instructions skipped in execute
system.switch_cpus.iew.iewExecutedInsts      33153414                       # Number of executed instructions
system.switch_cpus.iew.iewIQFullEvents          18527                       # Number of times the IQ has become full, causing a stall
system.switch_cpus.iew.iewIdleCycles                0                       # Number of cycles IEW is idle
system.switch_cpus.iew.iewLSQFullEvents            45                       # Number of times the LSQ has become full, causing a stall
system.switch_cpus.iew.iewSquashCycles         586740                       # Number of cycles IEW is squashing
system.switch_cpus.iew.iewUnblockCycles         26561                       # Number of cycles IEW is unblocking
system.switch_cpus.iew.lsq.thread0.blockedLoads            0                       # Number of blocked loads due to partial load-store forwarding
system.switch_cpus.iew.lsq.thread0.cacheBlocked       163110                       # Number of times an access to memory failed due to the cache being blocked
system.switch_cpus.iew.lsq.thread0.forwLoads       136775                       # Number of loads that had data forwarded from stores
system.switch_cpus.iew.lsq.thread0.ignoredResponses         1565                       # Number of memory responses ignored because the instruction is squashed
system.switch_cpus.iew.lsq.thread0.invAddrLoads            0                       # Number of loads ignored due to an invalid address
system.switch_cpus.iew.lsq.thread0.invAddrSwpfs            0                       # Number of software prefetches ignored due to an invalid address
system.switch_cpus.iew.lsq.thread0.memOrderViolation         2642                       # Number of memory ordering violations
system.switch_cpus.iew.lsq.thread0.rescheduledLoads            3                       # Number of loads that were rescheduled
system.switch_cpus.iew.lsq.thread0.squashedLoads      2355448                       # Number of loads squashed
system.switch_cpus.iew.lsq.thread0.squashedStores      1005065                       # Number of stores squashed
system.switch_cpus.iew.memOrderViolationEvents         2642                       # Number of memory order violations
system.switch_cpus.iew.predictedNotTakenIncorrect       457106                       # Number of branches that were predicted not taken incorrectly
system.switch_cpus.iew.predictedTakenIncorrect       203062                       # Number of branches that were predicted taken incorrectly
system.switch_cpus.iew.wb_consumers          31157935                       # num instructions consuming a value
system.switch_cpus.iew.wb_count              31763173                       # cumulative count of insts written-back
system.switch_cpus.iew.wb_fanout             0.727409                       # average fanout of values written-back
system.switch_cpus.iew.wb_producers          22664559                       # num instructions producing a value
system.switch_cpus.iew.wb_rate               1.282451                       # insts written-back per cycle
system.switch_cpus.iew.wb_sent               31898878                       # cumulative count of insts sent to commit
system.switch_cpus.int_regfile_reads         43356736                       # number of integer regfile reads
system.switch_cpus.int_regfile_writes        26880718                       # number of integer regfile writes
system.switch_cpus.ipc                       0.403754                       # IPC: Instructions Per Cycle
system.switch_cpus.ipc_total                 0.403754                       # IPC: Total IPC of All Threads
system.switch_cpus.iq.FU_type_0::No_OpClass       127512      0.37%      0.37% # Type of FU issued
system.switch_cpus.iq.FU_type_0::IntAlu      28768672     83.51%     83.88% # Type of FU issued
system.switch_cpus.iq.FU_type_0::IntMult        13833      0.04%     83.92% # Type of FU issued
system.switch_cpus.iq.FU_type_0::IntDiv             0      0.00%     83.92% # Type of FU issued
system.switch_cpus.iq.FU_type_0::FloatAdd            0      0.00%     83.92% # Type of FU issued
system.switch_cpus.iq.FU_type_0::FloatCmp            0      0.00%     83.92% # Type of FU issued
system.switch_cpus.iq.FU_type_0::FloatCvt            0      0.00%     83.92% # Type of FU issued
system.switch_cpus.iq.FU_type_0::FloatMult            0      0.00%     83.92% # Type of FU issued
system.switch_cpus.iq.FU_type_0::FloatMultAcc            0      0.00%     83.92% # Type of FU issued
system.switch_cpus.iq.FU_type_0::FloatDiv            0      0.00%     83.92% # Type of FU issued
system.switch_cpus.iq.FU_type_0::FloatMisc            0      0.00%     83.92% # Type of FU issued
system.switch_cpus.iq.FU_type_0::FloatSqrt            0      0.00%     83.92% # Type of FU issued
system.switch_cpus.iq.FU_type_0::SimdAdd            0      0.00%     83.92% # Type of FU issued
system.switch_cpus.iq.FU_type_0::SimdAddAcc            0      0.00%     83.92% # Type of FU issued
system.switch_cpus.iq.FU_type_0::SimdAlu            0      0.00%     83.92% # Type of FU issued
system.switch_cpus.iq.FU_type_0::SimdCmp            0      0.00%     83.92% # Type of FU issued
system.switch_cpus.iq.FU_type_0::SimdCvt            0      0.00%     83.92% # Type of FU issued
system.switch_cpus.iq.FU_type_0::SimdMisc            0      0.00%     83.92% # Type of FU issued
system.switch_cpus.iq.FU_type_0::SimdMult            0      0.00%     83.92% # Type of FU issued
system.switch_cpus.iq.FU_type_0::SimdMultAcc            0      0.00%     83.92% # Type of FU issued
system.switch_cpus.iq.FU_type_0::SimdShift            0      0.00%     83.92% # Type of FU issued
system.switch_cpus.iq.FU_type_0::SimdShiftAcc            0      0.00%     83.92% # Type of FU issued
system.switch_cpus.iq.FU_type_0::SimdDiv            0      0.00%     83.92% # Type of FU issued
system.switch_cpus.iq.FU_type_0::SimdSqrt            0      0.00%     83.92% # Type of FU issued
system.switch_cpus.iq.FU_type_0::SimdFloatAdd            0      0.00%     83.92% # Type of FU issued
system.switch_cpus.iq.FU_type_0::SimdFloatAlu            0      0.00%     83.92% # Type of FU issued
system.switch_cpus.iq.FU_type_0::SimdFloatCmp            0      0.00%     83.92% # Type of FU issued
system.switch_cpus.iq.FU_type_0::SimdFloatCvt            0      0.00%     83.92% # Type of FU issued
system.switch_cpus.iq.FU_type_0::SimdFloatDiv            0      0.00%     83.92% # Type of FU issued
system.switch_cpus.iq.FU_type_0::SimdFloatMisc            0      0.00%     83.92% # Type of FU issued
system.switch_cpus.iq.FU_type_0::SimdFloatMult            0      0.00%     83.92% # Type of FU issued
system.switch_cpus.iq.FU_type_0::SimdFloatMultAcc            0      0.00%     83.92% # Type of FU issued
system.switch_cpus.iq.FU_type_0::SimdFloatSqrt            0      0.00%     83.92% # Type of FU issued
system.switch_cpus.iq.FU_type_0::SimdReduceAdd            0      0.00%     83.92% # Type of FU issued
system.switch_cpus.iq.FU_type_0::SimdReduceAlu            0      0.00%     83.92% # Type of FU issued
system.switch_cpus.iq.FU_type_0::SimdReduceCmp            0      0.00%     83.92% # Type of FU issued
system.switch_cpus.iq.FU_type_0::SimdFloatReduceAdd            0      0.00%     83.92% # Type of FU issued
system.switch_cpus.iq.FU_type_0::SimdFloatReduceCmp            0      0.00%     83.92% # Type of FU issued
system.switch_cpus.iq.FU_type_0::SimdAes            0      0.00%     83.92% # Type of FU issued
system.switch_cpus.iq.FU_type_0::SimdAesMix            0      0.00%     83.92% # Type of FU issued
system.switch_cpus.iq.FU_type_0::SimdSha1Hash            0      0.00%     83.92% # Type of FU issued
system.switch_cpus.iq.FU_type_0::SimdSha1Hash2            0      0.00%     83.92% # Type of FU issued
system.switch_cpus.iq.FU_type_0::SimdSha256Hash            0      0.00%     83.92% # Type of FU issued
system.switch_cpus.iq.FU_type_0::SimdSha256Hash2            0      0.00%     83.92% # Type of FU issued
system.switch_cpus.iq.FU_type_0::SimdShaSigma2            0      0.00%     83.92% # Type of FU issued
system.switch_cpus.iq.FU_type_0::SimdShaSigma3            0      0.00%     83.92% # Type of FU issued
system.switch_cpus.iq.FU_type_0::SimdPredAlu            0      0.00%     83.92% # Type of FU issued
system.switch_cpus.iq.FU_type_0::MemRead      4393026     12.75%     96.68% # Type of FU issued
system.switch_cpus.iq.FU_type_0::MemWrite      1107004      3.21%     99.89% # Type of FU issued
system.switch_cpus.iq.FU_type_0::FloatMemRead        19330      0.06%     99.95% # Type of FU issued
system.switch_cpus.iq.FU_type_0::FloatMemWrite        18449      0.05%    100.00% # Type of FU issued
system.switch_cpus.iq.FU_type_0::IprAccess            0      0.00%    100.00% # Type of FU issued
system.switch_cpus.iq.FU_type_0::InstPrefetch            0      0.00%    100.00% # Type of FU issued
system.switch_cpus.iq.FU_type_0::total       34447826                       # Type of FU issued
system.switch_cpus.iq.fp_alu_accesses           38388                       # Number of floating point alu accesses
system.switch_cpus.iq.fp_inst_queue_reads        76176                       # Number of floating instruction queue reads
system.switch_cpus.iq.fp_inst_queue_wakeup_accesses        36866                       # Number of floating instruction queue wakeup accesses
system.switch_cpus.iq.fp_inst_queue_writes        49210                       # Number of floating instruction queue writes
system.switch_cpus.iq.fu_busy_cnt              511770                       # FU busy when requested
system.switch_cpus.iq.fu_busy_rate           0.014856                       # FU busy rate (busy events/executed inst)
system.switch_cpus.iq.fu_full::No_OpClass            0      0.00%      0.00% # attempts to use FU when none available
system.switch_cpus.iq.fu_full::IntAlu          384352     75.10%     75.10% # attempts to use FU when none available
system.switch_cpus.iq.fu_full::IntMult              0      0.00%     75.10% # attempts to use FU when none available
system.switch_cpus.iq.fu_full::IntDiv               0      0.00%     75.10% # attempts to use FU when none available
system.switch_cpus.iq.fu_full::FloatAdd             0      0.00%     75.10% # attempts to use FU when none available
system.switch_cpus.iq.fu_full::FloatCmp             0      0.00%     75.10% # attempts to use FU when none available
system.switch_cpus.iq.fu_full::FloatCvt             0      0.00%     75.10% # attempts to use FU when none available
system.switch_cpus.iq.fu_full::FloatMult            0      0.00%     75.10% # attempts to use FU when none available
system.switch_cpus.iq.fu_full::FloatMultAcc            0      0.00%     75.10% # attempts to use FU when none available
system.switch_cpus.iq.fu_full::FloatDiv             0      0.00%     75.10% # attempts to use FU when none available
system.switch_cpus.iq.fu_full::FloatMisc            0      0.00%     75.10% # attempts to use FU when none available
system.switch_cpus.iq.fu_full::FloatSqrt            0      0.00%     75.10% # attempts to use FU when none available
system.switch_cpus.iq.fu_full::SimdAdd              0      0.00%     75.10% # attempts to use FU when none available
system.switch_cpus.iq.fu_full::SimdAddAcc            0      0.00%     75.10% # attempts to use FU when none available
system.switch_cpus.iq.fu_full::SimdAlu              0      0.00%     75.10% # attempts to use FU when none available
system.switch_cpus.iq.fu_full::SimdCmp              0      0.00%     75.10% # attempts to use FU when none available
system.switch_cpus.iq.fu_full::SimdCvt              0      0.00%     75.10% # attempts to use FU when none available
system.switch_cpus.iq.fu_full::SimdMisc             0      0.00%     75.10% # attempts to use FU when none available
system.switch_cpus.iq.fu_full::SimdMult             0      0.00%     75.10% # attempts to use FU when none available
system.switch_cpus.iq.fu_full::SimdMultAcc            0      0.00%     75.10% # attempts to use FU when none available
system.switch_cpus.iq.fu_full::SimdShift            0      0.00%     75.10% # attempts to use FU when none available
system.switch_cpus.iq.fu_full::SimdShiftAcc            0      0.00%     75.10% # attempts to use FU when none available
system.switch_cpus.iq.fu_full::SimdDiv              0      0.00%     75.10% # attempts to use FU when none available
system.switch_cpus.iq.fu_full::SimdSqrt             0      0.00%     75.10% # attempts to use FU when none available
system.switch_cpus.iq.fu_full::SimdFloatAdd            0      0.00%     75.10% # attempts to use FU when none available
system.switch_cpus.iq.fu_full::SimdFloatAlu            0      0.00%     75.10% # attempts to use FU when none available
system.switch_cpus.iq.fu_full::SimdFloatCmp            0      0.00%     75.10% # attempts to use FU when none available
system.switch_cpus.iq.fu_full::SimdFloatCvt            0      0.00%     75.10% # attempts to use FU when none available
system.switch_cpus.iq.fu_full::SimdFloatDiv            0      0.00%     75.10% # attempts to use FU when none available
system.switch_cpus.iq.fu_full::SimdFloatMisc            0      0.00%     75.10% # attempts to use FU when none available
system.switch_cpus.iq.fu_full::SimdFloatMult            0      0.00%     75.10% # attempts to use FU when none available
system.switch_cpus.iq.fu_full::SimdFloatMultAcc            0      0.00%     75.10% # attempts to use FU when none available
system.switch_cpus.iq.fu_full::SimdFloatSqrt            0      0.00%     75.10% # attempts to use FU when none available
system.switch_cpus.iq.fu_full::SimdReduceAdd            0      0.00%     75.10% # attempts to use FU when none available
system.switch_cpus.iq.fu_full::SimdReduceAlu            0      0.00%     75.10% # attempts to use FU when none available
system.switch_cpus.iq.fu_full::SimdReduceCmp            0      0.00%     75.10% # attempts to use FU when none available
system.switch_cpus.iq.fu_full::SimdFloatReduceAdd            0      0.00%     75.10% # attempts to use FU when none available
system.switch_cpus.iq.fu_full::SimdFloatReduceCmp            0      0.00%     75.10% # attempts to use FU when none available
system.switch_cpus.iq.fu_full::SimdAes              0      0.00%     75.10% # attempts to use FU when none available
system.switch_cpus.iq.fu_full::SimdAesMix            0      0.00%     75.10% # attempts to use FU when none available
system.switch_cpus.iq.fu_full::SimdSha1Hash            0      0.00%     75.10% # attempts to use FU when none available
system.switch_cpus.iq.fu_full::SimdSha1Hash2            0      0.00%     75.10% # attempts to use FU when none available
system.switch_cpus.iq.fu_full::SimdSha256Hash            0      0.00%     75.10% # attempts to use FU when none available
system.switch_cpus.iq.fu_full::SimdSha256Hash2            0      0.00%     75.10% # attempts to use FU when none available
system.switch_cpus.iq.fu_full::SimdShaSigma2            0      0.00%     75.10% # attempts to use FU when none available
system.switch_cpus.iq.fu_full::SimdShaSigma3            0      0.00%     75.10% # attempts to use FU when none available
system.switch_cpus.iq.fu_full::SimdPredAlu            0      0.00%     75.10% # attempts to use FU when none available
system.switch_cpus.iq.fu_full::MemRead         126459     24.71%     99.81% # attempts to use FU when none available
system.switch_cpus.iq.fu_full::MemWrite           350      0.07%     99.88% # attempts to use FU when none available
system.switch_cpus.iq.fu_full::FloatMemRead          579      0.11%     99.99% # attempts to use FU when none available
system.switch_cpus.iq.fu_full::FloatMemWrite           30      0.01%    100.00% # attempts to use FU when none available
system.switch_cpus.iq.fu_full::IprAccess            0      0.00%    100.00% # attempts to use FU when none available
system.switch_cpus.iq.fu_full::InstPrefetch            0      0.00%    100.00% # attempts to use FU when none available
system.switch_cpus.iq.int_alu_accesses       34793696                       # Number of integer alu accesses
system.switch_cpus.iq.int_inst_queue_reads     94249986                       # Number of integer instruction queue reads
system.switch_cpus.iq.int_inst_queue_wakeup_accesses     31726307                       # Number of integer instruction queue wakeup accesses
system.switch_cpus.iq.int_inst_queue_writes     59529743                       # Number of integer instruction queue writes
system.switch_cpus.iq.iqInstsAdded           38200828                       # Number of instructions added to the IQ (excludes non-spec)
system.switch_cpus.iq.iqInstsIssued          34447826                       # Number of instructions issued
system.switch_cpus.iq.iqSquashedInstsExamined     21375818                       # Number of squashed instructions iterated over during squash; mainly for profiling
system.switch_cpus.iq.iqSquashedInstsIssued       153878                       # Number of squashed instructions issued
system.switch_cpus.iq.iqSquashedOperandsExamined     21225155                       # Number of squashed operands that are examined and possibly removed from graph
system.switch_cpus.iq.issued_per_cycle::samples     24764862                       # Number of insts issued each cycle
system.switch_cpus.iq.issued_per_cycle::mean     1.390996                       # Number of insts issued each cycle
system.switch_cpus.iq.issued_per_cycle::stdev     2.103225                       # Number of insts issued each cycle
system.switch_cpus.iq.issued_per_cycle::underflows            0      0.00%      0.00% # Number of insts issued each cycle
system.switch_cpus.iq.issued_per_cycle::0     15207146     61.41%     61.41% # Number of insts issued each cycle
system.switch_cpus.iq.issued_per_cycle::1      1403911      5.67%     67.08% # Number of insts issued each cycle
system.switch_cpus.iq.issued_per_cycle::2      1804241      7.29%     74.36% # Number of insts issued each cycle
system.switch_cpus.iq.issued_per_cycle::3      1662309      6.71%     81.07% # Number of insts issued each cycle
system.switch_cpus.iq.issued_per_cycle::4      1668200      6.74%     87.81% # Number of insts issued each cycle
system.switch_cpus.iq.issued_per_cycle::5      1269417      5.13%     92.93% # Number of insts issued each cycle
system.switch_cpus.iq.issued_per_cycle::6      1003854      4.05%     96.99% # Number of insts issued each cycle
system.switch_cpus.iq.issued_per_cycle::7       560775      2.26%     99.25% # Number of insts issued each cycle
system.switch_cpus.iq.issued_per_cycle::8       185009      0.75%    100.00% # Number of insts issued each cycle
system.switch_cpus.iq.issued_per_cycle::overflows            0      0.00%    100.00% # Number of insts issued each cycle
system.switch_cpus.iq.issued_per_cycle::min_value            0                       # Number of insts issued each cycle
system.switch_cpus.iq.issued_per_cycle::max_value            8                       # Number of insts issued each cycle
system.switch_cpus.iq.issued_per_cycle::total     24764862                       # Number of insts issued each cycle
system.switch_cpus.iq.rate                   1.390845                       # Inst issue rate
system.switch_cpus.iq.vec_alu_accesses              0                       # Number of vector alu accesses
system.switch_cpus.iq.vec_inst_queue_reads            0                       # Number of vector instruction queue reads
system.switch_cpus.iq.vec_inst_queue_wakeup_accesses            0                       # Number of vector instruction queue wakeup accesses
system.switch_cpus.iq.vec_inst_queue_writes            0                       # Number of vector instruction queue writes
system.switch_cpus.itb.rdAccesses                   0                       # TLB accesses on read requests
system.switch_cpus.itb.rdMisses                     0                       # TLB misses on read requests
system.switch_cpus.itb.wrAccesses             4948245                       # TLB accesses on write requests
system.switch_cpus.itb.wrMisses                     3                       # TLB misses on write requests
system.switch_cpus.memDep0.conflictingLoads       537227                       # Number of conflicting loads.
system.switch_cpus.memDep0.conflictingStores       609706                       # Number of conflicting stores.
system.switch_cpus.memDep0.insertedLoads      4226825                       # Number of loads inserted to the mem dependence unit.
system.switch_cpus.memDep0.insertedStores      1579148                       # Number of stores inserted to the mem dependence unit.
system.switch_cpus.misc_regfile_reads        13876051                       # number of misc regfile reads
system.switch_cpus.misc_regfile_writes              1                       # number of misc regfile writes
system.switch_cpus.numCycles                 24767553                       # number of cpu cycles simulated
system.switch_cpus.numWorkItemsCompleted            0                       # number of work items this cpu completed
system.switch_cpus.numWorkItemsStarted              0                       # number of work items this cpu started
system.switch_cpus.rename.BlockCycles        12172719                       # Number of cycles rename is blocking
system.switch_cpus.rename.CommittedMaps      20843699                       # Number of HB maps that are committed
system.switch_cpus.rename.IQFullEvents         226018                       # Number of times rename has blocked due to IQ full
system.switch_cpus.rename.IdleCycles          4519341                       # Number of cycles rename is idle
system.switch_cpus.rename.LQFullEvents              5                       # Number of times rename has blocked due to LQ full
system.switch_cpus.rename.ROBFullEvents        406415                       # Number of times rename has blocked due to ROB full
system.switch_cpus.rename.RenameLookups     104694425                       # Number of register rename lookups that rename has made
system.switch_cpus.rename.RenamedInsts       42770628                       # Number of instructions processed by rename
system.switch_cpus.rename.RenamedOperands     52800633                       # Number of destination operands rename has renamed
system.switch_cpus.rename.RunCycles           6713538                       # Number of cycles rename is running
system.switch_cpus.rename.SQFullEvents            295                       # Number of times rename has blocked due to SQ full
system.switch_cpus.rename.SquashCycles         586740                       # Number of cycles rename is squashing
system.switch_cpus.rename.UnblockCycles        772519                       # Number of cycles rename is unblocking
system.switch_cpus.rename.UndoneMaps         31956904                       # Number of HB maps that are undone due to squashing
system.switch_cpus.rename.fp_rename_lookups        22871                       # Number of floating rename lookups
system.switch_cpus.rename.int_rename_lookups     60113437                       # Number of integer rename lookups
system.switch_cpus.rename.serializeStallCycles            0                       # count of cycles rename stalled for serializing inst
system.switch_cpus.rename.serializingInsts            0                       # count of serializing insts renamed
system.switch_cpus.rename.skidInsts           2455417                       # count of insts added to the skid buffer
system.switch_cpus.rename.tempSerializingInsts            0                       # count of temporary serializing insts renamed
system.switch_cpus.rob.rob_reads             58700703                       # The number of ROB reads
system.switch_cpus.rob.rob_writes            79680333                       # The number of ROB writes
system.switch_cpus.timesIdled                      28                       # Number of times that the entire CPU went into an idle state and unscheduled itself
system.tol2bus.snoop_filter.hit_multi_requests            0                       # Number of requests hitting in the snoop filter with multiple (>1) holders of the requested data.
system.tol2bus.snoop_filter.hit_multi_snoops            0                       # Number of snoops hitting in the snoop filter with multiple (>1) holders of the requested data.
system.tol2bus.snoop_filter.hit_single_requests       296410                       # Number of requests hitting in the snoop filter with a single holder of the requested data.
system.tol2bus.snoop_filter.hit_single_snoops       255466                       # Number of snoops hitting in the snoop filter with a single holder of the requested data.
system.tol2bus.snoop_filter.tot_requests       593897                       # Total number of requests made to the snoop filter.
system.tol2bus.snoop_filter.tot_snoops         255466                       # Total number of snoops made to the snoop filter.
system.membus.pwrStateResidencyTicks::UNDEFINED 926051987069000                       # Cumulative time (in ticks) in various power states
system.membus.trans_dist::ReadResp             265822                       # Transaction distribution
system.membus.trans_dist::WritebackDirty         8567                       # Transaction distribution
system.membus.trans_dist::CleanEvict           254695                       # Transaction distribution
system.membus.trans_dist::ReadExReq                13                       # Transaction distribution
system.membus.trans_dist::ReadExResp               13                       # Transaction distribution
system.membus.trans_dist::ReadSharedReq        265823                       # Transaction distribution
system.membus.pkt_count_system.l2.mem_side::system.mem_ctrls.port       794933                       # Packet count per connected master and slave (bytes)
system.membus.pkt_count_system.l2.mem_side::total       794933                       # Packet count per connected master and slave (bytes)
system.membus.pkt_count::total                 794933                       # Packet count per connected master and slave (bytes)
system.membus.pkt_size_system.l2.mem_side::system.mem_ctrls.port     17561728                       # Cumulative packet size per connected master and slave (bytes)
system.membus.pkt_size_system.l2.mem_side::total     17561728                       # Cumulative packet size per connected master and slave (bytes)
system.membus.pkt_size::total                17561728                       # Cumulative packet size per connected master and slave (bytes)
system.membus.snoops                                0                       # Total snoops (count)
system.membus.snoopTraffic                          0                       # Total snoop traffic (bytes)
system.membus.snoop_fanout::samples            265836                       # Request fanout histogram
system.membus.snoop_fanout::mean                    0                       # Request fanout histogram
system.membus.snoop_fanout::stdev                   0                       # Request fanout histogram
system.membus.snoop_fanout::underflows              0      0.00%      0.00% # Request fanout histogram
system.membus.snoop_fanout::0                  265836    100.00%    100.00% # Request fanout histogram
system.membus.snoop_fanout::1                       0      0.00%    100.00% # Request fanout histogram
system.membus.snoop_fanout::overflows               0      0.00%    100.00% # Request fanout histogram
system.membus.snoop_fanout::min_value               0                       # Request fanout histogram
system.membus.snoop_fanout::max_value               0                       # Request fanout histogram
system.membus.snoop_fanout::total              265836                       # Request fanout histogram
system.membus.reqLayer2.occupancy           616160000                       # Layer occupancy (ticks)
system.membus.reqLayer2.utilization               5.0                       # Layer utilization (%)
system.membus.respLayer1.occupancy         1435329500                       # Layer occupancy (ticks)
system.membus.respLayer1.utilization             11.6                       # Layer utilization (%)
system.switch_cpus.pwrStateResidencyTicks::OFF  12383786500                       # Cumulative time (in ticks) in various power states
system.switch_cpus.dtb.walker.pwrStateResidencyTicks::UNDEFINED 926051987069000                       # Cumulative time (in ticks) in various power states
system.switch_cpus.itb.walker.pwrStateResidencyTicks::UNDEFINED 926051987069000                       # Cumulative time (in ticks) in various power states
system.tol2bus.pwrStateResidencyTicks::UNDEFINED 926051987069000                       # Cumulative time (in ticks) in various power states
system.tol2bus.trans_dist::ReadResp            296928                       # Transaction distribution
system.tol2bus.trans_dist::WritebackDirty        24637                       # Transaction distribution
system.tol2bus.trans_dist::CleanEvict          545405                       # Transaction distribution
system.tol2bus.trans_dist::ReadExReq              556                       # Transaction distribution
system.tol2bus.trans_dist::ReadExResp             556                       # Transaction distribution
system.tol2bus.trans_dist::ReadCleanReq            50                       # Transaction distribution
system.tol2bus.trans_dist::ReadSharedReq       296881                       # Transaction distribution
system.tol2bus.pkt_count_system.cpu.icache.mem_side::system.l2.cpu_side          100                       # Packet count per connected master and slave (bytes)
system.tol2bus.pkt_count_system.cpu.dcache.mem_side::system.l2.cpu_side       891281                       # Packet count per connected master and slave (bytes)
system.tol2bus.pkt_count::total                891381                       # Packet count per connected master and slave (bytes)
system.tol2bus.pkt_size_system.cpu.icache.mem_side::system.l2.cpu_side         3200                       # Cumulative packet size per connected master and slave (bytes)
system.tol2bus.pkt_size_system.cpu.dcache.mem_side::system.l2.cpu_side     20064256                       # Cumulative packet size per connected master and slave (bytes)
system.tol2bus.pkt_size::total               20067456                       # Cumulative packet size per connected master and slave (bytes)
system.tol2bus.snoops                          273632                       # Total snoops (count)
system.tol2bus.snoopTraffic                    548288                       # Total snoop traffic (bytes)
system.tol2bus.snoop_fanout::samples           571119                       # Request fanout histogram
system.tol2bus.snoop_fanout::mean            0.447308                       # Request fanout histogram
system.tol2bus.snoop_fanout::stdev           0.497216                       # Request fanout histogram
system.tol2bus.snoop_fanout::underflows             0      0.00%      0.00% # Request fanout histogram
system.tol2bus.snoop_fanout::0                 315653     55.27%     55.27% # Request fanout histogram
system.tol2bus.snoop_fanout::1                 255466     44.73%    100.00% # Request fanout histogram
system.tol2bus.snoop_fanout::2                      0      0.00%    100.00% # Request fanout histogram
system.tol2bus.snoop_fanout::3                      0      0.00%    100.00% # Request fanout histogram
system.tol2bus.snoop_fanout::4                      0      0.00%    100.00% # Request fanout histogram
system.tol2bus.snoop_fanout::overflows              0      0.00%    100.00% # Request fanout histogram
system.tol2bus.snoop_fanout::min_value              0                       # Request fanout histogram
system.tol2bus.snoop_fanout::max_value              1                       # Request fanout histogram
system.tol2bus.snoop_fanout::total             571119                       # Request fanout histogram
system.tol2bus.reqLayer0.occupancy          313016500                       # Layer occupancy (ticks)
system.tol2bus.reqLayer0.utilization              2.5                       # Layer utilization (%)
system.tol2bus.respLayer1.occupancy         446148000                       # Layer occupancy (ticks)
system.tol2bus.respLayer1.utilization             3.6                       # Layer utilization (%)
system.tol2bus.respLayer0.occupancy             72000                       # Layer occupancy (ticks)
system.tol2bus.respLayer0.utilization             0.0                       # Layer utilization (%)
system.voltage_domain.voltage                       1                       # Voltage in Volts
system.clk_domain.clock                          1000                       # Clock period in ticks
system.l2.pwrStateResidencyTicks::UNDEFINED 926051987069000                       # Cumulative time (in ticks) in various power states
system.l2.demand_hits::.switch_cpus.data        31651                       # number of demand (read+write) hits
system.l2.demand_hits::total                    31651                       # number of demand (read+write) hits
system.l2.overall_hits::.switch_cpus.data        31651                       # number of overall hits
system.l2.overall_hits::total                   31651                       # number of overall hits
system.l2.demand_misses::.cpu.inst                  2                       # number of demand (read+write) misses
system.l2.demand_misses::.cpu.data                  2                       # number of demand (read+write) misses
system.l2.demand_misses::.switch_cpus.inst           48                       # number of demand (read+write) misses
system.l2.demand_misses::.switch_cpus.data       265784                       # number of demand (read+write) misses
system.l2.demand_misses::total                 265836                       # number of demand (read+write) misses
system.l2.overall_misses::.cpu.inst                 2                       # number of overall misses
system.l2.overall_misses::.cpu.data                 2                       # number of overall misses
system.l2.overall_misses::.switch_cpus.inst           48                       # number of overall misses
system.l2.overall_misses::.switch_cpus.data       265784                       # number of overall misses
system.l2.overall_misses::total                265836                       # number of overall misses
system.l2.demand_miss_latency::.switch_cpus.inst      3798000                       # number of demand (read+write) miss cycles
system.l2.demand_miss_latency::.switch_cpus.data  24160351000                       # number of demand (read+write) miss cycles
system.l2.demand_miss_latency::total      24164149000                       # number of demand (read+write) miss cycles
system.l2.overall_miss_latency::.switch_cpus.inst      3798000                       # number of overall miss cycles
system.l2.overall_miss_latency::.switch_cpus.data  24160351000                       # number of overall miss cycles
system.l2.overall_miss_latency::total     24164149000                       # number of overall miss cycles
system.l2.demand_accesses::.cpu.inst                2                       # number of demand (read+write) accesses
system.l2.demand_accesses::.cpu.data                2                       # number of demand (read+write) accesses
system.l2.demand_accesses::.switch_cpus.inst           48                       # number of demand (read+write) accesses
system.l2.demand_accesses::.switch_cpus.data       297435                       # number of demand (read+write) accesses
system.l2.demand_accesses::total               297487                       # number of demand (read+write) accesses
system.l2.overall_accesses::.cpu.inst               2                       # number of overall (read+write) accesses
system.l2.overall_accesses::.cpu.data               2                       # number of overall (read+write) accesses
system.l2.overall_accesses::.switch_cpus.inst           48                       # number of overall (read+write) accesses
system.l2.overall_accesses::.switch_cpus.data       297435                       # number of overall (read+write) accesses
system.l2.overall_accesses::total              297487                       # number of overall (read+write) accesses
system.l2.demand_miss_rate::.cpu.inst               1                       # miss rate for demand accesses
system.l2.demand_miss_rate::.cpu.data               1                       # miss rate for demand accesses
system.l2.demand_miss_rate::.switch_cpus.inst            1                       # miss rate for demand accesses
system.l2.demand_miss_rate::.switch_cpus.data     0.893587                       # miss rate for demand accesses
system.l2.demand_miss_rate::total            0.893605                       # miss rate for demand accesses
system.l2.overall_miss_rate::.cpu.inst              1                       # miss rate for overall accesses
system.l2.overall_miss_rate::.cpu.data              1                       # miss rate for overall accesses
system.l2.overall_miss_rate::.switch_cpus.inst            1                       # miss rate for overall accesses
system.l2.overall_miss_rate::.switch_cpus.data     0.893587                       # miss rate for overall accesses
system.l2.overall_miss_rate::total           0.893605                       # miss rate for overall accesses
system.l2.demand_avg_miss_latency::.switch_cpus.inst        79125                       # average overall miss latency
system.l2.demand_avg_miss_latency::.switch_cpus.data 90902.202540                       # average overall miss latency
system.l2.demand_avg_miss_latency::total 90898.708226                       # average overall miss latency
system.l2.overall_avg_miss_latency::.switch_cpus.inst        79125                       # average overall miss latency
system.l2.overall_avg_miss_latency::.switch_cpus.data 90902.202540                       # average overall miss latency
system.l2.overall_avg_miss_latency::total 90898.708226                       # average overall miss latency
system.l2.blocked_cycles::no_mshrs                  0                       # number of cycles access was blocked
system.l2.blocked_cycles::no_targets                0                       # number of cycles access was blocked
system.l2.blocked::no_mshrs                         0                       # number of cycles access was blocked
system.l2.blocked::no_targets                       0                       # number of cycles access was blocked
system.l2.avg_blocked_cycles::no_mshrs            nan                       # average number of cycles each access was blocked
system.l2.avg_blocked_cycles::no_targets          nan                       # average number of cycles each access was blocked
system.l2.writebacks::.writebacks                8567                       # number of writebacks
system.l2.writebacks::total                      8567                       # number of writebacks
system.l2.demand_mshr_misses::.switch_cpus.inst           48                       # number of demand (read+write) MSHR misses
system.l2.demand_mshr_misses::.switch_cpus.data       265784                       # number of demand (read+write) MSHR misses
system.l2.demand_mshr_misses::total            265832                       # number of demand (read+write) MSHR misses
system.l2.overall_mshr_misses::.switch_cpus.inst           48                       # number of overall MSHR misses
system.l2.overall_mshr_misses::.switch_cpus.data       265784                       # number of overall MSHR misses
system.l2.overall_mshr_misses::total           265832                       # number of overall MSHR misses
system.l2.demand_mshr_miss_latency::.switch_cpus.inst      3318000                       # number of demand (read+write) MSHR miss cycles
system.l2.demand_mshr_miss_latency::.switch_cpus.data  21502521000                       # number of demand (read+write) MSHR miss cycles
system.l2.demand_mshr_miss_latency::total  21505839000                       # number of demand (read+write) MSHR miss cycles
system.l2.overall_mshr_miss_latency::.switch_cpus.inst      3318000                       # number of overall MSHR miss cycles
system.l2.overall_mshr_miss_latency::.switch_cpus.data  21502521000                       # number of overall MSHR miss cycles
system.l2.overall_mshr_miss_latency::total  21505839000                       # number of overall MSHR miss cycles
system.l2.demand_mshr_miss_rate::.switch_cpus.inst            1                       # mshr miss rate for demand accesses
system.l2.demand_mshr_miss_rate::.switch_cpus.data     0.893587                       # mshr miss rate for demand accesses
system.l2.demand_mshr_miss_rate::total       0.893592                       # mshr miss rate for demand accesses
system.l2.overall_mshr_miss_rate::.switch_cpus.inst            1                       # mshr miss rate for overall accesses
system.l2.overall_mshr_miss_rate::.switch_cpus.data     0.893587                       # mshr miss rate for overall accesses
system.l2.overall_mshr_miss_rate::total      0.893592                       # mshr miss rate for overall accesses
system.l2.demand_avg_mshr_miss_latency::.switch_cpus.inst        69125                       # average overall mshr miss latency
system.l2.demand_avg_mshr_miss_latency::.switch_cpus.data 80902.240165                       # average overall mshr miss latency
system.l2.demand_avg_mshr_miss_latency::total 80900.113606                       # average overall mshr miss latency
system.l2.overall_avg_mshr_miss_latency::.switch_cpus.inst        69125                       # average overall mshr miss latency
system.l2.overall_avg_mshr_miss_latency::.switch_cpus.data 80902.240165                       # average overall mshr miss latency
system.l2.overall_avg_mshr_miss_latency::total 80900.113606                       # average overall mshr miss latency
system.l2.replacements                         273632                       # number of replacements
system.l2.WritebackDirty_hits::.writebacks        16070                       # number of WritebackDirty hits
system.l2.WritebackDirty_hits::total            16070                       # number of WritebackDirty hits
system.l2.WritebackDirty_accesses::.writebacks        16070                       # number of WritebackDirty accesses(hits+misses)
system.l2.WritebackDirty_accesses::total        16070                       # number of WritebackDirty accesses(hits+misses)
system.l2.CleanEvict_mshr_misses::.writebacks       245096                       # number of CleanEvict MSHR misses
system.l2.CleanEvict_mshr_misses::total        245096                       # number of CleanEvict MSHR misses
system.l2.CleanEvict_mshr_miss_rate::.writebacks          inf                       # mshr miss rate for CleanEvict accesses
system.l2.CleanEvict_mshr_miss_rate::total          inf                       # mshr miss rate for CleanEvict accesses
system.l2.ReadExReq_hits::.switch_cpus.data          543                       # number of ReadExReq hits
system.l2.ReadExReq_hits::total                   543                       # number of ReadExReq hits
system.l2.ReadExReq_misses::.switch_cpus.data           13                       # number of ReadExReq misses
system.l2.ReadExReq_misses::total                  13                       # number of ReadExReq misses
system.l2.ReadExReq_miss_latency::.switch_cpus.data       702500                       # number of ReadExReq miss cycles
system.l2.ReadExReq_miss_latency::total        702500                       # number of ReadExReq miss cycles
system.l2.ReadExReq_accesses::.switch_cpus.data          556                       # number of ReadExReq accesses(hits+misses)
system.l2.ReadExReq_accesses::total               556                       # number of ReadExReq accesses(hits+misses)
system.l2.ReadExReq_miss_rate::.switch_cpus.data     0.023381                       # miss rate for ReadExReq accesses
system.l2.ReadExReq_miss_rate::total         0.023381                       # miss rate for ReadExReq accesses
system.l2.ReadExReq_avg_miss_latency::.switch_cpus.data 54038.461538                       # average ReadExReq miss latency
system.l2.ReadExReq_avg_miss_latency::total 54038.461538                       # average ReadExReq miss latency
system.l2.ReadExReq_mshr_misses::.switch_cpus.data           13                       # number of ReadExReq MSHR misses
system.l2.ReadExReq_mshr_misses::total             13                       # number of ReadExReq MSHR misses
system.l2.ReadExReq_mshr_miss_latency::.switch_cpus.data       572500                       # number of ReadExReq MSHR miss cycles
system.l2.ReadExReq_mshr_miss_latency::total       572500                       # number of ReadExReq MSHR miss cycles
system.l2.ReadExReq_mshr_miss_rate::.switch_cpus.data     0.023381                       # mshr miss rate for ReadExReq accesses
system.l2.ReadExReq_mshr_miss_rate::total     0.023381                       # mshr miss rate for ReadExReq accesses
system.l2.ReadExReq_avg_mshr_miss_latency::.switch_cpus.data 44038.461538                       # average ReadExReq mshr miss latency
system.l2.ReadExReq_avg_mshr_miss_latency::total 44038.461538                       # average ReadExReq mshr miss latency
system.l2.ReadCleanReq_misses::.cpu.inst            2                       # number of ReadCleanReq misses
system.l2.ReadCleanReq_misses::.switch_cpus.inst           48                       # number of ReadCleanReq misses
system.l2.ReadCleanReq_misses::total               50                       # number of ReadCleanReq misses
system.l2.ReadCleanReq_miss_latency::.switch_cpus.inst      3798000                       # number of ReadCleanReq miss cycles
system.l2.ReadCleanReq_miss_latency::total      3798000                       # number of ReadCleanReq miss cycles
system.l2.ReadCleanReq_accesses::.cpu.inst            2                       # number of ReadCleanReq accesses(hits+misses)
system.l2.ReadCleanReq_accesses::.switch_cpus.inst           48                       # number of ReadCleanReq accesses(hits+misses)
system.l2.ReadCleanReq_accesses::total             50                       # number of ReadCleanReq accesses(hits+misses)
system.l2.ReadCleanReq_miss_rate::.cpu.inst            1                       # miss rate for ReadCleanReq accesses
system.l2.ReadCleanReq_miss_rate::.switch_cpus.inst            1                       # miss rate for ReadCleanReq accesses
system.l2.ReadCleanReq_miss_rate::total             1                       # miss rate for ReadCleanReq accesses
system.l2.ReadCleanReq_avg_miss_latency::.switch_cpus.inst        79125                       # average ReadCleanReq miss latency
system.l2.ReadCleanReq_avg_miss_latency::total        75960                       # average ReadCleanReq miss latency
system.l2.ReadCleanReq_mshr_misses::.switch_cpus.inst           48                       # number of ReadCleanReq MSHR misses
system.l2.ReadCleanReq_mshr_misses::total           48                       # number of ReadCleanReq MSHR misses
system.l2.ReadCleanReq_mshr_miss_latency::.switch_cpus.inst      3318000                       # number of ReadCleanReq MSHR miss cycles
system.l2.ReadCleanReq_mshr_miss_latency::total      3318000                       # number of ReadCleanReq MSHR miss cycles
system.l2.ReadCleanReq_mshr_miss_rate::.switch_cpus.inst            1                       # mshr miss rate for ReadCleanReq accesses
system.l2.ReadCleanReq_mshr_miss_rate::total     0.960000                       # mshr miss rate for ReadCleanReq accesses
system.l2.ReadCleanReq_avg_mshr_miss_latency::.switch_cpus.inst        69125                       # average ReadCleanReq mshr miss latency
system.l2.ReadCleanReq_avg_mshr_miss_latency::total        69125                       # average ReadCleanReq mshr miss latency
system.l2.ReadSharedReq_hits::.switch_cpus.data        31108                       # number of ReadSharedReq hits
system.l2.ReadSharedReq_hits::total             31108                       # number of ReadSharedReq hits
system.l2.ReadSharedReq_misses::.cpu.data            2                       # number of ReadSharedReq misses
[...]
system.cpu.icache.tags.occ_task_id_percent::1024     0.115234                       # Percentage of cache occupancy per task id
system.cpu.icache.tags.tag_accesses          31364697                       # Number of tag accesses
system.cpu.icache.tags.data_accesses         31364697                       # Number of data accesses
system.cpu.dtb.walker.pwrStateResidencyTicks::UNDEFINED 926125129453500                       # Cumulative time (in ticks) in various power states
system.cpu.interrupts.clk_domain.clock           8000                       # Clock period in ticks
system.cpu.itb_walker_cache.pwrStateResidencyTicks::UNDEFINED 926125129453500                       # Cumulative time (in ticks) in various power states
system.cpu.itb_walker_cache.blocked_cycles::no_mshrs            0                       # number of cycles access was blocked
system.cpu.itb_walker_cache.blocked_cycles::no_targets            0                       # number of cycles access was blocked
system.cpu.itb_walker_cache.blocked::no_mshrs            0                       # number of cycles access was blocked
system.cpu.itb_walker_cache.blocked::no_targets            0                       # number of cycles access was blocked
system.cpu.itb_walker_cache.avg_blocked_cycles::no_mshrs          nan                       # average number of cycles each access was blocked
system.cpu.itb_walker_cache.avg_blocked_cycles::no_targets          nan                       # average number of cycles each access was blocked
system.cpu.itb_walker_cache.replacements            0                       # number of replacements
system.cpu.itb_walker_cache.tags.pwrStateResidencyTicks::UNDEFINED 926125129453500                       # Cumulative time (in ticks) in various power states
system.cpu.itb_walker_cache.tags.tagsinuse            0                       # Cycle average of tags in use
system.cpu.itb_walker_cache.tags.total_refs            0                       # Total number of references to valid blocks.
system.cpu.itb_walker_cache.tags.sampled_refs            0                       # Sample count of references to valid blocks.
system.cpu.itb_walker_cache.tags.avg_refs          nan                       # Average number of references to valid blocks.
system.cpu.itb_walker_cache.tags.warmup_cycle            0                       # Cycle when the warmup percentage was hit.
system.cpu.itb_walker_cache.tags.tag_accesses            0                       # Number of tag accesses
system.cpu.itb_walker_cache.tags.data_accesses            0                       # Number of data accesses
system.cpu.itb.walker.pwrStateResidencyTicks::UNDEFINED 926125129453500                       # Cumulative time (in ticks) in various power states
system.cpu.dtb_walker_cache.pwrStateResidencyTicks::UNDEFINED 926125129453500                       # Cumulative time (in ticks) in various power states
system.cpu.dtb_walker_cache.blocked_cycles::no_mshrs            0                       # number of cycles access was blocked
system.cpu.dtb_walker_cache.blocked_cycles::no_targets            0                       # number of cycles access was blocked
system.cpu.dtb_walker_cache.blocked::no_mshrs            0                       # number of cycles access was blocked
system.cpu.dtb_walker_cache.blocked::no_targets            0                       # number of cycles access was blocked
system.cpu.dtb_walker_cache.avg_blocked_cycles::no_mshrs          nan                       # average number of cycles each access was blocked
system.cpu.dtb_walker_cache.avg_blocked_cycles::no_targets          nan                       # average number of cycles each access was blocked
system.cpu.dtb_walker_cache.replacements            0                       # number of replacements
system.cpu.dtb_walker_cache.tags.pwrStateResidencyTicks::UNDEFINED 926125129453500                       # Cumulative time (in ticks) in various power states
system.cpu.dtb_walker_cache.tags.tagsinuse            0                       # Cycle average of tags in use
system.cpu.dtb_walker_cache.tags.total_refs            0                       # Total number of references to valid blocks.
system.cpu.dtb_walker_cache.tags.sampled_refs            0                       # Sample count of references to valid blocks.
system.cpu.dtb_walker_cache.tags.avg_refs          nan                       # Average number of references to valid blocks.
system.cpu.dtb_walker_cache.tags.warmup_cycle            0                       # Cycle when the warmup percentage was hit.
system.cpu.dtb_walker_cache.tags.tag_accesses            0                       # Number of tag accesses
system.cpu.dtb_walker_cache.tags.data_accesses            0                       # Number of data accesses
system.cpu.dcache.pwrStateResidencyTicks::UNDEFINED 926125129453500                       # Cumulative time (in ticks) in various power states
system.cpu.dcache.demand_hits::.switch_cpus.data     12426158                       # number of demand (read+write) hits
system.cpu.dcache.demand_hits::total         12426158                       # number of demand (read+write) hits
system.cpu.dcache.overall_hits::.switch_cpus.data     12426158                       # number of overall hits
system.cpu.dcache.overall_hits::total        12426158                       # number of overall hits
system.cpu.dcache.demand_misses::.cpu.data            2                       # number of demand (read+write) misses
system.cpu.dcache.demand_misses::.switch_cpus.data      1686436                       # number of demand (read+write) misses
system.cpu.dcache.demand_misses::total        1686438                       # number of demand (read+write) misses
system.cpu.dcache.overall_misses::.cpu.data            2                       # number of overall misses
system.cpu.dcache.overall_misses::.switch_cpus.data      1686436                       # number of overall misses
system.cpu.dcache.overall_misses::total       1686438                       # number of overall misses
system.cpu.dcache.demand_miss_latency::.switch_cpus.data 137127426998                       # number of demand (read+write) miss cycles
system.cpu.dcache.demand_miss_latency::total 137127426998                       # number of demand (read+write) miss cycles
system.cpu.dcache.overall_miss_latency::.switch_cpus.data 137127426998                       # number of overall miss cycles
system.cpu.dcache.overall_miss_latency::total 137127426998                       # number of overall miss cycles
system.cpu.dcache.demand_accesses::.cpu.data            2                       # number of demand (read+write) accesses
system.cpu.dcache.demand_accesses::.switch_cpus.data     14112594                       # number of demand (read+write) accesses
system.cpu.dcache.demand_accesses::total     14112596                       # number of demand (read+write) accesses
system.cpu.dcache.overall_accesses::.cpu.data            2                       # number of overall (read+write) accesses
system.cpu.dcache.overall_accesses::.switch_cpus.data     14112594                       # number of overall (read+write) accesses
system.cpu.dcache.overall_accesses::total     14112596                       # number of overall (read+write) accesses
system.cpu.dcache.demand_miss_rate::.cpu.data            1                       # miss rate for demand accesses
system.cpu.dcache.demand_miss_rate::.switch_cpus.data     0.119499                       # miss rate for demand accesses
system.cpu.dcache.demand_miss_rate::total     0.119499                       # miss rate for demand accesses
system.cpu.dcache.overall_miss_rate::.cpu.data            1                       # miss rate for overall accesses
system.cpu.dcache.overall_miss_rate::.switch_cpus.data     0.119499                       # miss rate for overall accesses
system.cpu.dcache.overall_miss_rate::total     0.119499                       # miss rate for overall accesses
system.cpu.dcache.demand_avg_miss_latency::.switch_cpus.data 81311.966181                       # average overall miss latency
system.cpu.dcache.demand_avg_miss_latency::total 81311.869750                       # average overall miss latency
system.cpu.dcache.overall_avg_miss_latency::.switch_cpus.data 81311.966181                       # average overall miss latency
system.cpu.dcache.overall_avg_miss_latency::total 81311.869750                       # average overall miss latency
system.cpu.dcache.blocked_cycles::no_mshrs     21265413                       # number of cycles access was blocked
system.cpu.dcache.blocked_cycles::no_targets         5778                       # number of cycles access was blocked
system.cpu.dcache.blocked::no_mshrs            429063                       # number of cycles access was blocked
system.cpu.dcache.blocked::no_targets             101                       # number of cycles access was blocked
system.cpu.dcache.avg_blocked_cycles::no_mshrs    49.562449                       # average number of cycles each access was blocked
system.cpu.dcache.avg_blocked_cycles::no_targets    57.207921                       # average number of cycles each access was blocked
system.cpu.dcache.writebacks::.writebacks       530993                       # number of writebacks
system.cpu.dcache.writebacks::total            530993                       # number of writebacks
system.cpu.dcache.demand_mshr_hits::.switch_cpus.data       387736                       # number of demand (read+write) MSHR hits
system.cpu.dcache.demand_mshr_hits::total       387736                       # number of demand (read+write) MSHR hits
system.cpu.dcache.overall_mshr_hits::.switch_cpus.data       387736                       # number of overall MSHR hits
system.cpu.dcache.overall_mshr_hits::total       387736                       # number of overall MSHR hits
system.cpu.dcache.demand_mshr_misses::.switch_cpus.data      1298700                       # number of demand (read+write) MSHR misses
system.cpu.dcache.demand_mshr_misses::total      1298700                       # number of demand (read+write) MSHR misses
system.cpu.dcache.overall_mshr_misses::.switch_cpus.data      1298700                       # number of overall MSHR misses
system.cpu.dcache.overall_mshr_misses::total      1298700                       # number of overall MSHR misses
system.cpu.dcache.demand_mshr_miss_latency::.switch_cpus.data 118786484498                       # number of demand (read+write) MSHR miss cycles
system.cpu.dcache.demand_mshr_miss_latency::total 118786484498                       # number of demand (read+write) MSHR miss cycles
system.cpu.dcache.overall_mshr_miss_latency::.switch_cpus.data 118786484498                       # number of overall MSHR miss cycles
system.cpu.dcache.overall_mshr_miss_latency::total 118786484498                       # number of overall MSHR miss cycles
system.cpu.dcache.demand_mshr_miss_rate::.switch_cpus.data     0.092024                       # mshr miss rate for demand accesses
system.cpu.dcache.demand_mshr_miss_rate::total     0.092024                       # mshr miss rate for demand accesses
system.cpu.dcache.overall_mshr_miss_rate::.switch_cpus.data     0.092024                       # mshr miss rate for overall accesses
system.cpu.dcache.overall_mshr_miss_rate::total     0.092024                       # mshr miss rate for overall accesses
system.cpu.dcache.demand_avg_mshr_miss_latency::.switch_cpus.data 91465.684529                       # average overall mshr miss latency
system.cpu.dcache.demand_avg_mshr_miss_latency::total 91465.684529                       # average overall mshr miss latency
system.cpu.dcache.overall_avg_mshr_miss_latency::.switch_cpus.data 91465.684529                       # average overall mshr miss latency
system.cpu.dcache.overall_avg_mshr_miss_latency::total 91465.684529                       # average overall mshr miss latency
system.cpu.dcache.replacements                1297678                       # number of replacements
system.cpu.dcache.ReadReq_hits::.switch_cpus.data     10425562                       # number of ReadReq hits
system.cpu.dcache.ReadReq_hits::total        10425562                       # number of ReadReq hits
system.cpu.dcache.ReadReq_misses::.cpu.data            2                       # number of ReadReq misses
system.cpu.dcache.ReadReq_misses::.switch_cpus.data      1201303                       # number of ReadReq misses
system.cpu.dcache.ReadReq_misses::total       1201305                       # number of ReadReq misses
system.cpu.dcache.ReadReq_miss_latency::.switch_cpus.data  89843966500                       # number of ReadReq miss cycles
system.cpu.dcache.ReadReq_miss_latency::total  89843966500                       # number of ReadReq miss cycles
system.cpu.dcache.ReadReq_accesses::.cpu.data            2                       # number of ReadReq accesses(hits+misses)
system.cpu.dcache.ReadReq_accesses::.switch_cpus.data     11626865                       # number of ReadReq accesses(hits+misses)
system.cpu.dcache.ReadReq_accesses::total     11626867                       # number of ReadReq accesses(hits+misses)
system.cpu.dcache.ReadReq_miss_rate::.cpu.data            1                       # miss rate for ReadReq accesses
system.cpu.dcache.ReadReq_miss_rate::.switch_cpus.data     0.103321                       # miss rate for ReadReq accesses
system.cpu.dcache.ReadReq_miss_rate::total     0.103321                       # miss rate for ReadReq accesses
system.cpu.dcache.ReadReq_avg_miss_latency::.switch_cpus.data 74788.763950                       # average ReadReq miss latency
system.cpu.dcache.ReadReq_avg_miss_latency::total 74788.639438                       # average ReadReq miss latency
system.cpu.dcache.ReadReq_mshr_hits::.switch_cpus.data       387732                       # number of ReadReq MSHR hits
system.cpu.dcache.ReadReq_mshr_hits::total       387732                       # number of ReadReq MSHR hits
system.cpu.dcache.ReadReq_mshr_misses::.switch_cpus.data       813571                       # number of ReadReq MSHR misses
system.cpu.dcache.ReadReq_mshr_misses::total       813571                       # number of ReadReq MSHR misses
system.cpu.dcache.ReadReq_mshr_miss_latency::.switch_cpus.data  71988202000                       # number of ReadReq MSHR miss cycles
system.cpu.dcache.ReadReq_mshr_miss_latency::total  71988202000                       # number of ReadReq MSHR miss cycles
system.cpu.dcache.ReadReq_mshr_miss_rate::.switch_cpus.data     0.069973                       # mshr miss rate for ReadReq accesses
system.cpu.dcache.ReadReq_mshr_miss_rate::total     0.069973                       # mshr miss rate for ReadReq accesses
system.cpu.dcache.ReadReq_avg_mshr_miss_latency::.switch_cpus.data 88484.228174                       # average ReadReq mshr miss latency
system.cpu.dcache.ReadReq_avg_mshr_miss_latency::total 88484.228174                       # average ReadReq mshr miss latency
system.cpu.dcache.WriteReq_hits::.switch_cpus.data      2000596                       # number of WriteReq hits
system.cpu.dcache.WriteReq_hits::total        2000596                       # number of WriteReq hits
system.cpu.dcache.WriteReq_misses::.switch_cpus.data       485133                       # number of WriteReq misses
system.cpu.dcache.WriteReq_misses::total       485133                       # number of WriteReq misses
system.cpu.dcache.WriteReq_miss_latency::.switch_cpus.data  47283460498                       # number of WriteReq miss cycles
system.cpu.dcache.WriteReq_miss_latency::total  47283460498                       # number of WriteReq miss cycles
system.cpu.dcache.WriteReq_accesses::.switch_cpus.data      2485729                       # number of WriteReq accesses(hits+misses)
system.cpu.dcache.WriteReq_accesses::total      2485729                       # number of WriteReq accesses(hits+misses)
system.cpu.dcache.WriteReq_miss_rate::.switch_cpus.data     0.195167                       # miss rate for WriteReq accesses
system.cpu.dcache.WriteReq_miss_rate::total     0.195167                       # miss rate for WriteReq accesses
system.cpu.dcache.WriteReq_avg_miss_latency::.switch_cpus.data 97464.943630                       # average WriteReq miss latency
system.cpu.dcache.WriteReq_avg_miss_latency::total 97464.943630                       # average WriteReq miss latency
system.cpu.dcache.WriteReq_mshr_hits::.switch_cpus.data            4                       # number of WriteReq MSHR hits
system.cpu.dcache.WriteReq_mshr_hits::total            4                       # number of WriteReq MSHR hits
system.cpu.dcache.WriteReq_mshr_misses::.switch_cpus.data       485129                       # number of WriteReq MSHR misses
system.cpu.dcache.WriteReq_mshr_misses::total       485129                       # number of WriteReq MSHR misses
system.cpu.dcache.WriteReq_mshr_miss_latency::.switch_cpus.data  46798282498                       # number of WriteReq MSHR miss cycles
system.cpu.dcache.WriteReq_mshr_miss_latency::total  46798282498                       # number of WriteReq MSHR miss cycles
system.cpu.dcache.WriteReq_mshr_miss_rate::.switch_cpus.data     0.195166                       # mshr miss rate for WriteReq accesses
system.cpu.dcache.WriteReq_mshr_miss_rate::total     0.195166                       # mshr miss rate for WriteReq accesses
system.cpu.dcache.WriteReq_avg_mshr_miss_latency::.switch_cpus.data 96465.646247                       # average WriteReq mshr miss latency
system.cpu.dcache.WriteReq_avg_mshr_miss_latency::total 96465.646247                       # average WriteReq mshr miss latency
system.cpu.dcache.tags.pwrStateResidencyTicks::UNDEFINED 926125129453500                       # Cumulative time (in ticks) in various power states
system.cpu.dcache.tags.tagsinuse             0.094518                       # Cycle average of tags in use
system.cpu.dcache.tags.total_refs            13724860                       # Total number of references to valid blocks.
system.cpu.dcache.tags.sampled_refs           1298702                       # Sample count of references to valid blocks.
system.cpu.dcache.tags.avg_refs             10.568136                       # Average number of references to valid blocks.
system.cpu.dcache.tags.warmup_cycle      926039603283000                       # Cycle when the warmup percentage was hit.
system.cpu.dcache.tags.occ_blocks::.cpu.data     0.000000                       # Average occupied blocks per requestor
system.cpu.dcache.tags.occ_blocks::.switch_cpus.data     0.094518                       # Average occupied blocks per requestor
system.cpu.dcache.tags.occ_percent::.cpu.data     0.000000                       # Average percentage of cache occupancy
system.cpu.dcache.tags.occ_percent::.switch_cpus.data     0.000092                       # Average percentage of cache occupancy
system.cpu.dcache.tags.occ_percent::total     0.000092                       # Average percentage of cache occupancy
system.cpu.dcache.tags.occ_task_id_blocks::1024         1024                       # Occupied blocks per task id
system.cpu.dcache.tags.age_task_id_blocks_1024::0          120                       # Occupied blocks per task id
system.cpu.dcache.tags.age_task_id_blocks_1024::1          720                       # Occupied blocks per task id
system.cpu.dcache.tags.age_task_id_blocks_1024::2          180                       # Occupied blocks per task id
system.cpu.dcache.tags.age_task_id_blocks_1024::3            4                       # Occupied blocks per task id
system.cpu.dcache.tags.occ_task_id_percent::1024            1                       # Percentage of cache occupancy per task id
system.cpu.dcache.tags.tag_accesses          29523894                       # Number of tag accesses
system.cpu.dcache.tags.data_accesses         29523894                       # Number of data accesses

---------- End Simulation Statistics   ----------
