
---------- Begin Simulation Statistics ----------
final_tick                               359103479565500                       # Number of ticks from beginning of simulation (restored from checkpoints and never reset)
host_inst_rate                                  20508                       # Simulator instruction rate (inst/s)
host_mem_usage                                 805832                       # Number of bytes of host memory used
host_op_rate                                    34610                       # Simulator op (including micro ops) rate (op/s)
host_seconds                                   487.62                       # Real time elapsed on the host
host_tick_rate                               18399039                       # Simulator tick rate (ticks/s)
sim_freq                                 1000000000000                       # Frequency of simulated ticks
sim_insts                                    10000008                       # Number of instructions simulated
sim_ops                                      16876343                       # Number of ops (including micro ops) simulated
sim_seconds                                  0.008972                       # Number of seconds simulated
sim_ticks                                  8971725500                       # Number of ticks simulated
system.cpu.Branches                                 1                       # Number of branches fetched
system.cpu.committedInsts                           8                       # Number of instructions committed
system.cpu.committedOps                            16                       # Number of ops (including micro ops) committed
system.cpu.dtb.rdAccesses                           4                       # TLB accesses on read requests
system.cpu.dtb.rdMisses                             0                       # TLB misses on read requests
system.cpu.dtb.wrAccesses                           0                       # TLB accesses on write requests
system.cpu.dtb.wrMisses                             0                       # TLB misses on write requests
system.cpu.idle_fraction                            0                       # Percentage of idle cycles
system.cpu.itb.rdAccesses                           0                       # TLB accesses on read requests
system.cpu.itb.rdMisses                             0                       # TLB misses on read requests
system.cpu.itb.wrAccesses                          12                       # TLB accesses on write requests
system.cpu.itb.wrMisses                             0                       # TLB misses on write requests
system.cpu.not_idle_fraction                        1                       # Percentage of non-idle cycles
system.cpu.numCycles                               20                       # number of cpu cycles simulated
system.cpu.numWorkItemsCompleted                    0                       # number of work items this cpu completed
system.cpu.numWorkItemsStarted                      0                       # number of work items this cpu started
system.cpu.num_busy_cycles                         20                       # Number of busy cycles
system.cpu.num_cc_register_reads                    5                       # number of times the CC registers were read
system.cpu.num_conditional_control_insts            1                       # number of instructions that are conditional controls
system.cpu.num_fp_alu_accesses                     13                       # Number of float alu accesses
system.cpu.num_fp_insts                            13                       # number of float instructions
system.cpu.num_fp_register_reads                   20                       # number of times the floating registers were read
system.cpu.num_fp_register_writes                  13                       # number of times the floating registers were written
system.cpu.num_func_calls                           0                       # number of times a function call or return occured
system.cpu.num_idle_cycles                          0                       # Number of idle cycles
system.cpu.num_int_alu_accesses                     6                       # Number of integer alu accesses
system.cpu.num_int_insts                            6                       # number of integer instructions
system.cpu.num_int_register_reads                  13                       # number of times the integer registers were read
system.cpu.num_int_register_writes                  2                       # number of times the integer registers were written
system.cpu.num_load_insts                           3                       # Number of load instructions
system.cpu.num_mem_refs                             3                       # number of memory refs
system.cpu.num_store_insts                          0                       # Number of store instructions
system.cpu.num_vec_alu_accesses                     0                       # Number of vector alu accesses
system.cpu.num_vec_insts                            0                       # number of vector instructions
system.cpu.num_vec_register_reads                   0                       # number of times the vector registers were read
system.cpu.num_vec_register_writes                  0                       # number of times the vector registers were written
system.cpu.op_class::No_OpClass                     0      0.00%      0.00% # Class of executed instruction
system.cpu.op_class::IntAlu                         5     31.25%     31.25% # Class of executed instruction
system.cpu.op_class::IntMult                        0      0.00%     31.25% # Class of executed instruction
system.cpu.op_class::IntDiv                         0      0.00%     31.25% # Class of executed instruction
system.cpu.op_class::FloatAdd                       2     12.50%     43.75% # Class of executed instruction
system.cpu.op_class::FloatCmp                       0      0.00%     43.75% # Class of executed instruction
system.cpu.op_class::FloatCvt                       0      0.00%     43.75% # Class of executed instruction
system.cpu.op_class::FloatMult                      0      0.00%     43.75% # Class of executed instruction
system.cpu.op_class::FloatMultAcc                   0      0.00%     43.75% # Class of executed instruction
system.cpu.op_class::FloatDiv                       0      0.00%     43.75% # Class of executed instruction
system.cpu.op_class::FloatMisc                      0      0.00%     43.75% # Class of executed instruction
system.cpu.op_class::FloatSqrt                      0      0.00%     43.75% # Class of executed instruction
system.cpu.op_class::SimdAdd                        0      0.00%     43.75% # Class of executed instruction
system.cpu.op_class::SimdAddAcc                     0      0.00%     43.75% # Class of executed instruction
system.cpu.op_class::SimdAlu                        2     12.50%     56.25% # Class of executed instruction
system.cpu.op_class::SimdCmp                        0      0.00%     56.25% # Class of executed instruction
system.cpu.op_class::SimdCvt                        0      0.00%     56.25% # Class of executed instruction
system.cpu.op_class::SimdMisc                       0      0.00%     56.25% # Class of executed instruction
system.cpu.op_class::SimdMult                       0      0.00%     56.25% # Class of executed instruction
system.cpu.op_class::SimdMultAcc                    0      0.00%     56.25% # Class of executed instruction
system.cpu.op_class::SimdShift                      0      0.00%     56.25% # Class of executed instruction
system.cpu.op_class::SimdShiftAcc                   0      0.00%     56.25% # Class of executed instruction
system.cpu.op_class::SimdDiv                        0      0.00%     56.25% # Class of executed instruction
system.cpu.op_class::SimdSqrt                       0      0.00%     56.25% # Class of executed instruction
system.cpu.op_class::SimdFloatAdd                   3     18.75%     75.00% # Class of executed instruction
system.cpu.op_class::SimdFloatAlu                   0      0.00%     75.00% # Class of executed instruction
system.cpu.op_class::SimdFloatCmp                   0      0.00%     75.00% # Class of executed instruction
system.cpu.op_class::SimdFloatCvt                   0      0.00%     75.00% # Class of executed instruction
system.cpu.op_class::SimdFloatDiv                   0      0.00%     75.00% # Class of executed instruction
system.cpu.op_class::SimdFloatMisc                  0      0.00%     75.00% # Class of executed instruction
system.cpu.op_class::SimdFloatMult                  1      6.25%     81.25% # Class of executed instruction
system.cpu.op_class::SimdFloatMultAcc               0      0.00%     81.25% # Class of executed instruction
system.cpu.op_class::SimdFloatSqrt                  0      0.00%     81.25% # Class of executed instruction
system.cpu.op_class::SimdReduceAdd                  0      0.00%     81.25% # Class of executed instruction
system.cpu.op_class::SimdReduceAlu                  0      0.00%     81.25% # Class of executed instruction
system.cpu.op_class::SimdReduceCmp                  0      0.00%     81.25% # Class of executed instruction
system.cpu.op_class::SimdFloatReduceAdd             0      0.00%     81.25% # Class of executed instruction
system.cpu.op_class::SimdFloatReduceCmp             0      0.00%     81.25% # Class of executed instruction
system.cpu.op_class::SimdAes                        0      0.00%     81.25% # Class of executed instruction
system.cpu.op_class::SimdAesMix                     0      0.00%     81.25% # Class of executed instruction
system.cpu.op_class::SimdSha1Hash                   0      0.00%     81.25% # Class of executed instruction
system.cpu.op_class::SimdSha1Hash2                  0      0.00%     81.25% # Class of executed instruction
system.cpu.op_class::SimdSha256Hash                 0      0.00%     81.25% # Class of executed instruction
system.cpu.op_class::SimdSha256Hash2                0      0.00%     81.25% # Class of executed instruction
system.cpu.op_class::SimdShaSigma2                  0      0.00%     81.25% # Class of executed instruction
system.cpu.op_class::SimdShaSigma3                  0      0.00%     81.25% # Class of executed instruction
system.cpu.op_class::SimdPredAlu                    0      0.00%     81.25% # Class of executed instruction
system.cpu.op_class::MemRead                        0      0.00%     81.25% # Class of executed instruction
system.cpu.op_class::MemWrite                       0      0.00%     81.25% # Class of executed instruction
system.cpu.op_class::FloatMemRead                   3     18.75%    100.00% # Class of executed instruction
system.cpu.op_class::FloatMemWrite                  0      0.00%    100.00% # Class of executed instruction
system.cpu.op_class::IprAccess                      0      0.00%    100.00% # Class of executed instruction
system.cpu.op_class::InstPrefetch                   0      0.00%    100.00% # Class of executed instruction
system.cpu.op_class::total                         16                       # Class of executed instruction
system.cpu.workload.numSyscalls                     0                       # Number of system calls
system.l2.prefetcher.num_hwpf_issued            13674                       # number of hwpf issued
system.l2.prefetcher.pfBufferHit                    2                       # number of redundant prefetches already in prefetch queue
system.l2.prefetcher.pfIdentified               13678                       # number of prefetch candidates identified
system.l2.prefetcher.pfInCache                      0                       # number of redundant prefetches already in cache/mshr dropped
system.l2.prefetcher.pfRemovedFull                  0                       # number of prefetches dropped due to prefetch queue size
system.l2.prefetcher.pfSpanPage                  1226                       # number of prefetches that crossed the page
system.membus.snoop_filter.hit_multi_requests            0                       # Number of requests hitting in the snoop filter with multiple (>1) holders of the requested data.
system.membus.snoop_filter.hit_multi_snoops            0                       # Number of snoops hitting in the snoop filter with multiple (>1) holders of the requested data.
system.membus.snoop_filter.hit_single_requests       167488                       # Number of requests hitting in the snoop filter with a single holder of the requested data.
system.membus.snoop_filter.hit_single_snoops            0                       # Number of snoops hitting in the snoop filter with a single holder of the requested data.
system.membus.snoop_filter.tot_requests        339536                       # Total number of requests made to the snoop filter.
system.membus.snoop_filter.tot_snoops               0                       # Total number of snoops made to the snoop filter.
system.switch_cpus.branchPred.BTBCorrect            0                       # Number of correct BTB predictions (this stat may not work properly.
system.switch_cpus.branchPred.BTBHitPct      0.000000                       # BTB Hit Percentage
system.switch_cpus.branchPred.BTBHits               0                       # Number of BTB hits
system.switch_cpus.branchPred.BTBLookups      1368957                       # Number of BTB lookups
system.switch_cpus.branchPred.RASInCorrect           28                       # Number of incorrect RAS predictions.
system.switch_cpus.branchPred.condIncorrect        77495                       # Number of conditional branches incorrect
system.switch_cpus.branchPred.condPredicted      1407599                       # Number of conditional branches predicted
system.switch_cpus.branchPred.indirectHits      1033188                       # Number of indirect target hits.
system.switch_cpus.branchPred.indirectLookups      1368957                       # Number of indirect predictor lookups.
system.switch_cpus.branchPred.indirectMisses       335769                       # Number of indirect misses.
system.switch_cpus.branchPred.lookups         1501551                       # Number of BP lookups
system.switch_cpus.branchPred.usedRAS           45992                       # Number of times the RAS was used to get a target.
system.switch_cpus.branchPredindirectMispredicted        20001                       # Number of mispredicted indirect branches.
system.switch_cpus.cc_regfile_reads           6481406                       # number of cc regfile reads
system.switch_cpus.cc_regfile_writes          4453095                       # number of cc regfile writes
system.switch_cpus.commit.amos                      0                       # Number of atomic instructions committed
system.switch_cpus.commit.branchMispredicts        77568                       # The number of times a branch was mispredicted
system.switch_cpus.commit.branches            1049066                       # Number of branches committed
system.switch_cpus.commit.bw_lim_events       1437462                       # number cycles where commit BW limit reached
system.switch_cpus.commit.commitSquashedInsts      2994205                       # The number of squashed insts skipped by commit
system.switch_cpus.commit.committedInsts     10000000                       # Number of instructions committed
system.switch_cpus.commit.committedOps       16876327                       # Number of ops (including micro ops) committed
system.switch_cpus.commit.committed_per_cycle::samples     17465126                       # Number of insts commited each cycle
system.switch_cpus.commit.committed_per_cycle::mean     0.966287                       # Number of insts commited each cycle
system.switch_cpus.commit.committed_per_cycle::stdev     2.351143                       # Number of insts commited each cycle
system.switch_cpus.commit.committed_per_cycle::underflows            0      0.00%      0.00% # Number of insts commited each cycle
system.switch_cpus.commit.committed_per_cycle::0     14026805     80.31%     80.31% # Number of insts commited each cycle
system.switch_cpus.commit.committed_per_cycle::1       892659      5.11%     85.42% # Number of insts commited each cycle
system.switch_cpus.commit.committed_per_cycle::2       138605      0.79%     86.22% # Number of insts commited each cycle
system.switch_cpus.commit.committed_per_cycle::3       218049      1.25%     87.47% # Number of insts commited each cycle
system.switch_cpus.commit.committed_per_cycle::4       398963      2.28%     89.75% # Number of insts commited each cycle
system.switch_cpus.commit.committed_per_cycle::5       216241      1.24%     90.99% # Number of insts commited each cycle
system.switch_cpus.commit.committed_per_cycle::6        78836      0.45%     91.44% # Number of insts commited each cycle
system.switch_cpus.commit.committed_per_cycle::7        57506      0.33%     91.77% # Number of insts commited each cycle
system.switch_cpus.commit.committed_per_cycle::8      1437462      8.23%    100.00% # Number of insts commited each cycle
system.switch_cpus.commit.committed_per_cycle::overflows            0      0.00%    100.00% # Number of insts commited each cycle
system.switch_cpus.commit.committed_per_cycle::min_value            0                       # Number of insts commited each cycle
system.switch_cpus.commit.committed_per_cycle::max_value            8                       # Number of insts commited each cycle
system.switch_cpus.commit.committed_per_cycle::total     17465126                       # Number of insts commited each cycle
system.switch_cpus.commit.fp_insts            8713193                       # Number of committed floating point instructions.
system.switch_cpus.commit.function_calls        26226                       # Number of function calls committed.
system.switch_cpus.commit.int_insts          10019631                       # Number of committed integer instructions.
system.switch_cpus.commit.loads               2743170                       # Number of loads committed
system.switch_cpus.commit.membars                   0                       # Number of memory barriers committed
system.switch_cpus.commit.op_class_0::No_OpClass        27517      0.16%      0.16% # Class of committed instruction
system.switch_cpus.commit.op_class_0::IntAlu      7410719     43.91%     44.07% # Class of committed instruction
system.switch_cpus.commit.op_class_0::IntMult          119      0.00%     44.08% # Class of committed instruction
system.switch_cpus.commit.op_class_0::IntDiv           56      0.00%     44.08% # Class of committed instruction
system.switch_cpus.commit.op_class_0::FloatAdd       891416      5.28%     49.36% # Class of committed instruction
system.switch_cpus.commit.op_class_0::FloatCmp            0      0.00%     49.36% # Class of committed instruction
system.switch_cpus.commit.op_class_0::FloatCvt            0      0.00%     49.36% # Class of committed instruction
system.switch_cpus.commit.op_class_0::FloatMult            0      0.00%     49.36% # Class of committed instruction
system.switch_cpus.commit.op_class_0::FloatMultAcc            0      0.00%     49.36% # Class of committed instruction
system.switch_cpus.commit.op_class_0::FloatDiv            0      0.00%     49.36% # Class of committed instruction
system.switch_cpus.commit.op_class_0::FloatMisc            0      0.00%     49.36% # Class of committed instruction
system.switch_cpus.commit.op_class_0::FloatSqrt            0      0.00%     49.36% # Class of committed instruction
system.switch_cpus.commit.op_class_0::SimdAdd            0      0.00%     49.36% # Class of committed instruction
system.switch_cpus.commit.op_class_0::SimdAddAcc            0      0.00%     49.36% # Class of committed instruction
system.switch_cpus.commit.op_class_0::SimdAlu      1379320      8.17%     57.53% # Class of committed instruction
system.switch_cpus.commit.op_class_0::SimdCmp            0      0.00%     57.53% # Class of committed instruction
system.switch_cpus.commit.op_class_0::SimdCvt            4      0.00%     57.53% # Class of committed instruction
system.switch_cpus.commit.op_class_0::SimdMisc        34436      0.20%     57.74% # Class of committed instruction
system.switch_cpus.commit.op_class_0::SimdMult            0      0.00%     57.74% # Class of committed instruction
system.switch_cpus.commit.op_class_0::SimdMultAcc            0      0.00%     57.74% # Class of committed instruction
system.switch_cpus.commit.op_class_0::SimdShift            0      0.00%     57.74% # Class of committed instruction
system.switch_cpus.commit.op_class_0::SimdShiftAcc            0      0.00%     57.74% # Class of committed instruction
system.switch_cpus.commit.op_class_0::SimdDiv            0      0.00%     57.74% # Class of committed instruction
system.switch_cpus.commit.op_class_0::SimdSqrt            0      0.00%     57.74% # Class of committed instruction
system.switch_cpus.commit.op_class_0::SimdFloatAdd      1310530      7.77%     65.50% # Class of committed instruction
system.switch_cpus.commit.op_class_0::SimdFloatAlu            0      0.00%     65.50% # Class of committed instruction
system.switch_cpus.commit.op_class_0::SimdFloatCmp        15450      0.09%     65.59% # Class of committed instruction
system.switch_cpus.commit.op_class_0::SimdFloatCvt      1398264      8.29%     73.88% # Class of committed instruction
system.switch_cpus.commit.op_class_0::SimdFloatDiv            0      0.00%     73.88% # Class of committed instruction
system.switch_cpus.commit.op_class_0::SimdFloatMisc            0      0.00%     73.88% # Class of committed instruction
system.switch_cpus.commit.op_class_0::SimdFloatMult      1344926      7.97%     81.85% # Class of committed instruction
system.switch_cpus.commit.op_class_0::SimdFloatMultAcc            0      0.00%     81.85% # Class of committed instruction
system.switch_cpus.commit.op_class_0::SimdFloatSqrt            0      0.00%     81.85% # Class of committed instruction
system.switch_cpus.commit.op_class_0::SimdReduceAdd            0      0.00%     81.85% # Class of committed instruction
system.switch_cpus.commit.op_class_0::SimdReduceAlu            0      0.00%     81.85% # Class of committed instruction
system.switch_cpus.commit.op_class_0::SimdReduceCmp            0      0.00%     81.85% # Class of committed instruction
system.switch_cpus.commit.op_class_0::SimdFloatReduceAdd            0      0.00%     81.85% # Class of committed instruction
system.switch_cpus.commit.op_class_0::SimdFloatReduceCmp            0      0.00%     81.85% # Class of committed instruction
system.switch_cpus.commit.op_class_0::SimdAes            0      0.00%     81.85% # Class of committed instruction
system.switch_cpus.commit.op_class_0::SimdAesMix            0      0.00%     81.85% # Class of committed instruction
system.switch_cpus.commit.op_class_0::SimdSha1Hash            0      0.00%     81.85% # Class of committed instruction
system.switch_cpus.commit.op_class_0::SimdSha1Hash2            0      0.00%     81.85% # Class of committed instruction
system.switch_cpus.commit.op_class_0::SimdSha256Hash            0      0.00%     81.85% # Class of committed instruction
system.switch_cpus.commit.op_class_0::SimdSha256Hash2            0      0.00%     81.85% # Class of committed instruction
system.switch_cpus.commit.op_class_0::SimdShaSigma2            0      0.00%     81.85% # Class of committed instruction
system.switch_cpus.commit.op_class_0::SimdShaSigma3            0      0.00%     81.85% # Class of committed instruction
system.switch_cpus.commit.op_class_0::SimdPredAlu            0      0.00%     81.85% # Class of committed instruction
system.switch_cpus.commit.op_class_0::MemRead       937733      5.56%     87.40% # Class of committed instruction
system.switch_cpus.commit.op_class_0::MemWrite       275299      1.63%     89.03% # Class of committed instruction
system.switch_cpus.commit.op_class_0::FloatMemRead      1805437     10.70%     99.73% # Class of committed instruction
system.switch_cpus.commit.op_class_0::FloatMemWrite        45101      0.27%    100.00% # Class of committed instruction
system.switch_cpus.commit.op_class_0::IprAccess            0      0.00%    100.00% # Class of committed instruction
system.switch_cpus.commit.op_class_0::InstPrefetch            0      0.00%    100.00% # Class of committed instruction
system.switch_cpus.commit.op_class_0::total     16876327                       # Class of committed instruction
system.switch_cpus.commit.refs                3063570                       # Number of memory references committed
system.switch_cpus.commit.swp_count                 0                       # Number of s/w prefetches committed
system.switch_cpus.commit.vec_insts                 0                       # Number of committed Vector instructions.
system.switch_cpus.committedInsts            10000000                       # Number of Instructions Simulated
system.switch_cpus.committedOps              16876327                       # Number of Ops (including micro ops) Simulated
system.switch_cpus.cpi                       1.794343                       # CPI: Cycles Per Instruction
system.switch_cpus.cpi_total                 1.794343                       # CPI: Total CPI of All Threads
system.switch_cpus.decode.BlockedCycles      13636921                       # Number of cycles decode is blocked
system.switch_cpus.decode.DecodedInsts       20804638                       # Number of instructions handled by decode
system.switch_cpus.decode.IdleCycles          1194783                       # Number of cycles decode is idle
system.switch_cpus.decode.RunCycles           2165449                       # Number of cycles decode is running
system.switch_cpus.decode.SquashCycles          77868                       # Number of cycles decode is squashing
system.switch_cpus.decode.UnblockCycles        813164                       # Number of cycles decode is unblocking
system.switch_cpus.dtb.rdAccesses             3193779                       # TLB accesses on read requests
system.switch_cpus.dtb.rdMisses                 15662                       # TLB misses on read requests
system.switch_cpus.dtb.wrAccesses              368054                       # TLB accesses on write requests
system.switch_cpus.dtb.wrMisses                  1276                       # TLB misses on write requests
system.switch_cpus.fetch.Branches             1501551                       # Number of branches that fetch encountered
system.switch_cpus.fetch.CacheLines           1748171                       # Number of cache lines fetched
system.switch_cpus.fetch.Cycles              15993933                       # Number of cycles fetch has run and was not squashing or blocked
system.switch_cpus.fetch.IcacheSquashes         17472                       # Number of outstanding Icache misses that were squashed
system.switch_cpus.fetch.IcacheWaitRetryStallCycles           96                       # Number of stall cycles due to full MSHR
system.switch_cpus.fetch.Insts               13060652                       # Number of instructions fetch has processed
system.switch_cpus.fetch.MiscStallCycles           65                       # Number of cycles fetch has spent waiting on interrupts, or bad addresses, or out of MSHRs
system.switch_cpus.fetch.PendingTrapStallCycles         2935                       # Number of stall cycles due to pending traps
system.switch_cpus.fetch.SquashCycles          155736                       # Number of cycles fetch has spent squashing
system.switch_cpus.fetch.branchRate          0.083682                       # Number of branch fetches per cycle
system.switch_cpus.fetch.icacheStallCycles      1813292                       # Number of cycles fetch is stalled on an Icache miss
system.switch_cpus.fetch.predictedBranches      1079180                       # Number of branches that fetch has predicted taken
system.switch_cpus.fetch.rate                0.727879                       # Number of inst fetches per cycle
system.switch_cpus.fetch.rateDist::samples     17888189                       # Number of instructions fetched each cycle (Total)
system.switch_cpus.fetch.rateDist::mean      1.236676                       # Number of instructions fetched each cycle (Total)
system.switch_cpus.fetch.rateDist::stdev     2.631641                       # Number of instructions fetched each cycle (Total)
system.switch_cpus.fetch.rateDist::underflows            0      0.00%      0.00% # Number of instructions fetched each cycle (Total)
system.switch_cpus.fetch.rateDist::0         14130427     78.99%     78.99% # Number of instructions fetched each cycle (Total)
system.switch_cpus.fetch.rateDist::1           273468      1.53%     80.52% # Number of instructions fetched each cycle (Total)
system.switch_cpus.fetch.rateDist::2           216828      1.21%     81.73% # Number of instructions fetched each cycle (Total)
system.switch_cpus.fetch.rateDist::3           227609      1.27%     83.01% # Number of instructions fetched each cycle (Total)
system.switch_cpus.fetch.rateDist::4           333892      1.87%     84.87% # Number of instructions fetched each cycle (Total)
system.switch_cpus.fetch.rateDist::5           385872      2.16%     87.03% # Number of instructions fetched each cycle (Total)
system.switch_cpus.fetch.rateDist::6           492273      2.75%     89.78% # Number of instructions fetched each cycle (Total)
system.switch_cpus.fetch.rateDist::7           109188      0.61%     90.39% # Number of instructions fetched each cycle (Total)
system.switch_cpus.fetch.rateDist::8          1718632      9.61%    100.00% # Number of instructions fetched each cycle (Total)
system.switch_cpus.fetch.rateDist::overflows            0      0.00%    100.00% # Number of instructions fetched each cycle (Total)
system.switch_cpus.fetch.rateDist::min_value            0                       # Number of instructions fetched each cycle (Total)
system.switch_cpus.fetch.rateDist::max_value            8                       # Number of instructions fetched each cycle (Total)
system.switch_cpus.fetch.rateDist::total     17888189                       # Number of instructions fetched each cycle (Total)
system.switch_cpus.fp_regfile_reads          14829266                       # number of floating regfile reads
system.switch_cpus.fp_regfile_writes          8822186                       # number of floating regfile writes
system.switch_cpus.idleCycles                   55242                       # Total number of cycles that the CPU has spent unscheduled due to idling
system.switch_cpus.iew.branchMispredicts        87442                       # Number of branch mispredicts detected at execute
system.switch_cpus.iew.exec_branches          1163321                       # Number of branches executed
system.switch_cpus.iew.exec_nop                     0                       # number of nop insts executed
system.switch_cpus.iew.exec_rate             1.051796                       # Inst execution rate
system.switch_cpus.iew.exec_refs              3644271                       # number of memory reference insts executed
system.switch_cpus.iew.exec_stores             367984                       # Number of stores executed
system.switch_cpus.iew.exec_swp                     0                       # number of swp insts executed
system.switch_cpus.iew.iewBlockCycles         7490342                       # Number of cycles IEW is blocking
system.switch_cpus.iew.iewDispLoadInsts       3288776                       # Number of dispatched load instructions
system.switch_cpus.iew.iewDispNonSpecInsts           21                       # Number of dispatched non-speculative instructions
system.switch_cpus.iew.iewDispSquashedInsts         8684                       # Number of squashed instructions skipped by dispatch
system.switch_cpus.iew.iewDispStoreInsts       424857                       # Number of dispatched store instructions
system.switch_cpus.iew.iewDispatchedInsts     19867658                       # Number of instructions dispatched to IQ
system.switch_cpus.iew.iewExecLoadInsts       3276287                       # Number of load instructions executed
system.switch_cpus.iew.iewExecSquashedInsts       142900                       # Number of squashed instructions skipped in execute
system.switch_cpus.iew.iewExecutedInsts      18872837                       # Number of executed instructions
system.switch_cpus.iew.iewIQFullEvents          75532                       # Number of times the IQ has become full, causing a stall
system.switch_cpus.iew.iewIdleCycles                0                       # Number of cycles IEW is idle
system.switch_cpus.iew.iewLSQFullEvents        472359                       # Number of times the LSQ has become full, causing a stall
system.switch_cpus.iew.iewSquashCycles          77868                       # Number of cycles IEW is squashing
system.switch_cpus.iew.iewUnblockCycles        593417                       # Number of cycles IEW is unblocking
system.switch_cpus.iew.lsq.thread0.blockedLoads            0                       # Number of blocked loads due to partial load-store forwarding
system.switch_cpus.iew.lsq.thread0.cacheBlocked        28211                       # Number of times an access to memory failed due to the cache being blocked
system.switch_cpus.iew.lsq.thread0.forwLoads        44301                       # Number of loads that had data forwarded from stores
system.switch_cpus.iew.lsq.thread0.ignoredResponses          341                       # Number of memory responses ignored because the instruction is squashed
system.switch_cpus.iew.lsq.thread0.invAddrLoads            0                       # Number of loads ignored due to an invalid address
system.switch_cpus.iew.lsq.thread0.invAddrSwpfs            0                       # Number of software prefetches ignored due to an invalid address
system.switch_cpus.iew.lsq.thread0.memOrderViolation          368                       # Number of memory ordering violations
system.switch_cpus.iew.lsq.thread0.rescheduledLoads          227                       # Number of loads that were rescheduled
system.switch_cpus.iew.lsq.thread0.squashedLoads       545588                       # Number of loads squashed
system.switch_cpus.iew.lsq.thread0.squashedStores       104457                       # Number of stores squashed
system.switch_cpus.iew.memOrderViolationEvents          368                       # Number of memory order violations
system.switch_cpus.iew.predictedNotTakenIncorrect        30163                       # Number of branches that were predicted not taken incorrectly
system.switch_cpus.iew.predictedTakenIncorrect        57279                       # Number of branches that were predicted taken incorrectly
system.switch_cpus.iew.wb_consumers          24011418                       # num instructions consuming a value
system.switch_cpus.iew.wb_count              18563737                       # cumulative count of insts written-back
system.switch_cpus.iew.wb_fanout             0.596903                       # average fanout of values written-back
system.switch_cpus.iew.wb_producers          14332484                       # num instructions producing a value
system.switch_cpus.iew.wb_rate               1.034570                       # insts written-back per cycle
system.switch_cpus.iew.wb_sent               18597155                       # cumulative count of insts sent to commit
system.switch_cpus.int_regfile_reads         17092936                       # number of integer regfile reads
system.switch_cpus.int_regfile_writes         8181468                       # number of integer regfile writes
system.switch_cpus.ipc                       0.557307                       # IPC: Instructions Per Cycle
system.switch_cpus.ipc_total                 0.557307                       # IPC: Total IPC of All Threads
system.switch_cpus.iq.FU_type_0::No_OpClass        39100      0.21%      0.21% # Type of FU issued
system.switch_cpus.iq.FU_type_0::IntAlu       8734785     45.93%     46.14% # Type of FU issued
system.switch_cpus.iq.FU_type_0::IntMult          193      0.00%     46.14% # Type of FU issued
system.switch_cpus.iq.FU_type_0::IntDiv            88      0.00%     46.14% # Type of FU issued
system.switch_cpus.iq.FU_type_0::FloatAdd       967011      5.09%     51.23% # Type of FU issued
system.switch_cpus.iq.FU_type_0::FloatCmp            0      0.00%     51.23% # Type of FU issued
system.switch_cpus.iq.FU_type_0::FloatCvt            0      0.00%     51.23% # Type of FU issued
system.switch_cpus.iq.FU_type_0::FloatMult            0      0.00%     51.23% # Type of FU issued
system.switch_cpus.iq.FU_type_0::FloatMultAcc            0      0.00%     51.23% # Type of FU issued
system.switch_cpus.iq.FU_type_0::FloatDiv            0      0.00%     51.23% # Type of FU issued
system.switch_cpus.iq.FU_type_0::FloatMisc            0      0.00%     51.23% # Type of FU issued
system.switch_cpus.iq.FU_type_0::FloatSqrt            0      0.00%     51.23% # Type of FU issued
system.switch_cpus.iq.FU_type_0::SimdAdd            0      0.00%     51.23% # Type of FU issued
system.switch_cpus.iq.FU_type_0::SimdAddAcc            0      0.00%     51.23% # Type of FU issued
system.switch_cpus.iq.FU_type_0::SimdAlu      1448977      7.62%     58.85% # Type of FU issued
system.switch_cpus.iq.FU_type_0::SimdCmp            0      0.00%     58.85% # Type of FU issued
system.switch_cpus.iq.FU_type_0::SimdCvt            8      0.00%     58.85% # Type of FU issued
system.switch_cpus.iq.FU_type_0::SimdMisc        35240      0.19%     59.03% # Type of FU issued
system.switch_cpus.iq.FU_type_0::SimdMult            0      0.00%     59.03% # Type of FU issued
system.switch_cpus.iq.FU_type_0::SimdMultAcc            0      0.00%     59.03% # Type of FU issued
system.switch_cpus.iq.FU_type_0::SimdShift            0      0.00%     59.03% # Type of FU issued
system.switch_cpus.iq.FU_type_0::SimdShiftAcc            0      0.00%     59.03% # Type of FU issued
system.switch_cpus.iq.FU_type_0::SimdDiv            0      0.00%     59.03% # Type of FU issued
system.switch_cpus.iq.FU_type_0::SimdSqrt            0      0.00%     59.03% # Type of FU issued
system.switch_cpus.iq.FU_type_0::SimdFloatAdd      1317157      6.93%     65.96% # Type of FU issued
system.switch_cpus.iq.FU_type_0::SimdFloatAlu            0      0.00%     65.96% # Type of FU issued
system.switch_cpus.iq.FU_type_0::SimdFloatCmp        15452      0.08%     66.04% # Type of FU issued
system.switch_cpus.iq.FU_type_0::SimdFloatCvt      1408915      7.41%     73.45% # Type of FU issued
system.switch_cpus.iq.FU_type_0::SimdFloatDiv            0      0.00%     73.45% # Type of FU issued
system.switch_cpus.iq.FU_type_0::SimdFloatMisc            0      0.00%     73.45% # Type of FU issued
system.switch_cpus.iq.FU_type_0::SimdFloatMult      1352161      7.11%     80.56% # Type of FU issued
system.switch_cpus.iq.FU_type_0::SimdFloatMultAcc            0      0.00%     80.56% # Type of FU issued
system.switch_cpus.iq.FU_type_0::SimdFloatSqrt            0      0.00%     80.56% # Type of FU issued
system.switch_cpus.iq.FU_type_0::SimdReduceAdd            0      0.00%     80.56% # Type of FU issued
system.switch_cpus.iq.FU_type_0::SimdReduceAlu            0      0.00%     80.56% # Type of FU issued
system.switch_cpus.iq.FU_type_0::SimdReduceCmp            0      0.00%     80.56% # Type of FU issued
system.switch_cpus.iq.FU_type_0::SimdFloatReduceAdd            0      0.00%     80.56% # Type of FU issued
system.switch_cpus.iq.FU_type_0::SimdFloatReduceCmp            0      0.00%     80.56% # Type of FU issued
system.switch_cpus.iq.FU_type_0::SimdAes            0      0.00%     80.56% # Type of FU issued
system.switch_cpus.iq.FU_type_0::SimdAesMix            0      0.00%     80.56% # Type of FU issued
system.switch_cpus.iq.FU_type_0::SimdSha1Hash            0      0.00%     80.56% # Type of FU issued
system.switch_cpus.iq.FU_type_0::SimdSha1Hash2            0      0.00%     80.56% # Type of FU issued
system.switch_cpus.iq.FU_type_0::SimdSha256Hash            0      0.00%     80.56% # Type of FU issued
system.switch_cpus.iq.FU_type_0::SimdSha256Hash2            0      0.00%     80.56% # Type of FU issued
system.switch_cpus.iq.FU_type_0::SimdShaSigma2            0      0.00%     80.56% # Type of FU issued
system.switch_cpus.iq.FU_type_0::SimdShaSigma3            0      0.00%     80.56% # Type of FU issued
system.switch_cpus.iq.FU_type_0::SimdPredAlu            0      0.00%     80.56% # Type of FU issued
system.switch_cpus.iq.FU_type_0::MemRead      1351005      7.10%     87.66% # Type of FU issued
system.switch_cpus.iq.FU_type_0::MemWrite       328125      1.73%     89.39% # Type of FU issued
system.switch_cpus.iq.FU_type_0::FloatMemRead      1971516     10.37%     99.76% # Type of FU issued
system.switch_cpus.iq.FU_type_0::FloatMemWrite        46005      0.24%    100.00% # Type of FU issued
system.switch_cpus.iq.FU_type_0::IprAccess            0      0.00%    100.00% # Type of FU issued
system.switch_cpus.iq.FU_type_0::InstPrefetch            0      0.00%    100.00% # Type of FU issued
system.switch_cpus.iq.FU_type_0::total       19015738                       # Type of FU issued
system.switch_cpus.iq.fp_alu_accesses         9272003                       # Number of floating point alu accesses
system.switch_cpus.iq.fp_inst_queue_reads     18342092                       # Number of floating instruction queue reads
system.switch_cpus.iq.fp_inst_queue_wakeup_accesses      8910927                       # Number of floating instruction queue wakeup accesses
system.switch_cpus.iq.fp_inst_queue_writes      9715821                       # Number of floating instruction queue writes
system.switch_cpus.iq.fu_busy_cnt              351154                       # FU busy when requested
system.switch_cpus.iq.fu_busy_rate           0.018466                       # FU busy rate (busy events/executed inst)
system.switch_cpus.iq.fu_full::No_OpClass            0      0.00%      0.00% # attempts to use FU when none available
system.switch_cpus.iq.fu_full::IntAlu          104180     29.67%     29.67% # attempts to use FU when none available
system.switch_cpus.iq.fu_full::IntMult              0      0.00%     29.67% # attempts to use FU when none available
system.switch_cpus.iq.fu_full::IntDiv               0      0.00%     29.67% # attempts to use FU when none available
system.switch_cpus.iq.fu_full::FloatAdd             0      0.00%     29.67% # attempts to use FU when none available
system.switch_cpus.iq.fu_full::FloatCmp             0      0.00%     29.67% # attempts to use FU when none available
system.switch_cpus.iq.fu_full::FloatCvt             0      0.00%     29.67% # attempts to use FU when none available
system.switch_cpus.iq.fu_full::FloatMult            0      0.00%     29.67% # attempts to use FU when none available
system.switch_cpus.iq.fu_full::FloatMultAcc            0      0.00%     29.67% # attempts to use FU when none available
system.switch_cpus.iq.fu_full::FloatDiv             0      0.00%     29.67% # attempts to use FU when none available
system.switch_cpus.iq.fu_full::FloatMisc            0      0.00%     29.67% # attempts to use FU when none available
system.switch_cpus.iq.fu_full::FloatSqrt            0      0.00%     29.67% # attempts to use FU when none available
system.switch_cpus.iq.fu_full::SimdAdd              0      0.00%     29.67% # attempts to use FU when none available
system.switch_cpus.iq.fu_full::SimdAddAcc            0      0.00%     29.67% # attempts to use FU when none available
system.switch_cpus.iq.fu_full::SimdAlu          60803     17.32%     46.98% # attempts to use FU when none available
system.switch_cpus.iq.fu_full::SimdCmp              0      0.00%     46.98% # attempts to use FU when none available
system.switch_cpus.iq.fu_full::SimdCvt              0      0.00%     46.98% # attempts to use FU when none available
system.switch_cpus.iq.fu_full::SimdMisc             0      0.00%     46.98% # attempts to use FU when none available
system.switch_cpus.iq.fu_full::SimdMult             0      0.00%     46.98% # attempts to use FU when none available
system.switch_cpus.iq.fu_full::SimdMultAcc            0      0.00%     46.98% # attempts to use FU when none available
system.switch_cpus.iq.fu_full::SimdShift            0      0.00%     46.98% # attempts to use FU when none available
system.switch_cpus.iq.fu_full::SimdShiftAcc            0      0.00%     46.98% # attempts to use FU when none available
system.switch_cpus.iq.fu_full::SimdDiv              0      0.00%     46.98% # attempts to use FU when none available
system.switch_cpus.iq.fu_full::SimdSqrt             0      0.00%     46.98% # attempts to use FU when none available
system.switch_cpus.iq.fu_full::SimdFloatAdd        80480     22.92%     69.90% # attempts to use FU when none available
system.switch_cpus.iq.fu_full::SimdFloatAlu            0      0.00%     69.90% # attempts to use FU when none available
system.switch_cpus.iq.fu_full::SimdFloatCmp            0      0.00%     69.90% # attempts to use FU when none available
system.switch_cpus.iq.fu_full::SimdFloatCvt        21807      6.21%     76.11% # attempts to use FU when none available
system.switch_cpus.iq.fu_full::SimdFloatDiv            0      0.00%     76.11% # attempts to use FU when none available
system.switch_cpus.iq.fu_full::SimdFloatMisc            0      0.00%     76.11% # attempts to use FU when none available
system.switch_cpus.iq.fu_full::SimdFloatMult         1412      0.40%     76.51% # attempts to use FU when none available
system.switch_cpus.iq.fu_full::SimdFloatMultAcc            0      0.00%     76.51% # attempts to use FU when none available
system.switch_cpus.iq.fu_full::SimdFloatSqrt            0      0.00%     76.51% # attempts to use FU when none available
system.switch_cpus.iq.fu_full::SimdReduceAdd            0      0.00%     76.51% # attempts to use FU when none available
system.switch_cpus.iq.fu_full::SimdReduceAlu            0      0.00%     76.51% # attempts to use FU when none available
system.switch_cpus.iq.fu_full::SimdReduceCmp            0      0.00%     76.51% # attempts to use FU when none available
system.switch_cpus.iq.fu_full::SimdFloatReduceAdd            0      0.00%     76.51% # attempts to use FU when none available
system.switch_cpus.iq.fu_full::SimdFloatReduceCmp            0      0.00%     76.51% # attempts to use FU when none available
system.switch_cpus.iq.fu_full::SimdAes              0      0.00%     76.51% # attempts to use FU when none available
system.switch_cpus.iq.fu_full::SimdAesMix            0      0.00%     76.51% # attempts to use FU when none available
system.switch_cpus.iq.fu_full::SimdSha1Hash            0      0.00%     76.51% # attempts to use FU when none available
system.switch_cpus.iq.fu_full::SimdSha1Hash2            0      0.00%     76.51% # attempts to use FU when none available
system.switch_cpus.iq.fu_full::SimdSha256Hash            0      0.00%     76.51% # attempts to use FU when none available
system.switch_cpus.iq.fu_full::SimdSha256Hash2            0      0.00%     76.51% # attempts to use FU when none available
system.switch_cpus.iq.fu_full::SimdShaSigma2            0      0.00%     76.51% # attempts to use FU when none available
system.switch_cpus.iq.fu_full::SimdShaSigma3            0      0.00%     76.51% # attempts to use FU when none available
system.switch_cpus.iq.fu_full::SimdPredAlu            0      0.00%     76.51% # attempts to use FU when none available
system.switch_cpus.iq.fu_full::MemRead          34189      9.74%     86.25% # attempts to use FU when none available
system.switch_cpus.iq.fu_full::MemWrite          6999      1.99%     88.24% # attempts to use FU when none available
system.switch_cpus.iq.fu_full::FloatMemRead        41194     11.73%     99.97% # attempts to use FU when none available
system.switch_cpus.iq.fu_full::FloatMemWrite           90      0.03%    100.00% # attempts to use FU when none available
system.switch_cpus.iq.fu_full::IprAccess            0      0.00%    100.00% # attempts to use FU when none available
system.switch_cpus.iq.fu_full::InstPrefetch            0      0.00%    100.00% # attempts to use FU when none available
system.switch_cpus.iq.int_alu_accesses       10055789                       # Number of integer alu accesses
system.switch_cpus.iq.int_inst_queue_reads     37977699                       # Number of integer instruction queue reads
system.switch_cpus.iq.int_inst_queue_wakeup_accesses      9652810                       # Number of integer instruction queue wakeup accesses
system.switch_cpus.iq.int_inst_queue_writes     13143398                       # Number of integer instruction queue writes
system.switch_cpus.iq.iqInstsAdded           19867595                       # Number of instructions added to the IQ (excludes non-spec)
system.switch_cpus.iq.iqInstsIssued          19015738                       # Number of instructions issued
system.switch_cpus.iq.iqNonSpecInstsAdded           63                       # Number of non-speculative instructions added to the IQ
system.switch_cpus.iq.iqSquashedInstsExamined      2991227                       # Number of squashed instructions iterated over during squash; mainly for profiling
system.switch_cpus.iq.iqSquashedInstsIssued        48973                       # Number of squashed instructions issued
system.switch_cpus.iq.iqSquashedNonSpecRemoved           63                       # Number of squashed non-spec instructions that were removed
system.switch_cpus.iq.iqSquashedOperandsExamined      4224112                       # Number of squashed operands that are examined and possibly removed from graph
system.switch_cpus.iq.issued_per_cycle::samples     17888189                       # Number of insts issued each cycle
system.switch_cpus.iq.issued_per_cycle::mean     1.063033                       # Number of insts issued each cycle
system.switch_cpus.iq.issued_per_cycle::stdev     1.930969                       # Number of insts issued each cycle
system.switch_cpus.iq.issued_per_cycle::underflows            0      0.00%      0.00% # Number of insts issued each cycle
system.switch_cpus.iq.issued_per_cycle::0     12117256     67.74%     67.74% # Number of insts issued each cycle
system.switch_cpus.iq.issued_per_cycle::1      1471023      8.22%     75.96% # Number of insts issued each cycle
system.switch_cpus.iq.issued_per_cycle::2      1045999      5.85%     81.81% # Number of insts issued each cycle
system.switch_cpus.iq.issued_per_cycle::3       896368      5.01%     86.82% # Number of insts issued each cycle
system.switch_cpus.iq.issued_per_cycle::4       784761      4.39%     91.21% # Number of insts issued each cycle
system.switch_cpus.iq.issued_per_cycle::5       565327      3.16%     94.37% # Number of insts issued each cycle
system.switch_cpus.iq.issued_per_cycle::6       474894      2.65%     97.02% # Number of insts issued each cycle
system.switch_cpus.iq.issued_per_cycle::7       311918      1.74%     98.77% # Number of insts issued each cycle
system.switch_cpus.iq.issued_per_cycle::8       220643      1.23%    100.00% # Number of insts issued each cycle
system.switch_cpus.iq.issued_per_cycle::overflows            0      0.00%    100.00% # Number of insts issued each cycle
system.switch_cpus.iq.issued_per_cycle::min_value            0                       # Number of insts issued each cycle
system.switch_cpus.iq.issued_per_cycle::max_value            8                       # Number of insts issued each cycle
system.switch_cpus.iq.issued_per_cycle::total     17888189                       # Number of insts issued each cycle
system.switch_cpus.iq.rate                   1.059760                       # Inst issue rate
system.switch_cpus.iq.vec_alu_accesses              0                       # Number of vector alu accesses
system.switch_cpus.iq.vec_inst_queue_reads            0                       # Number of vector instruction queue reads
system.switch_cpus.iq.vec_inst_queue_wakeup_accesses            0                       # Number of vector instruction queue wakeup accesses
system.switch_cpus.iq.vec_inst_queue_writes            0                       # Number of vector instruction queue writes
system.switch_cpus.itb.rdAccesses                   0                       # TLB accesses on read requests
system.switch_cpus.itb.rdMisses                     0                       # TLB misses on read requests
system.switch_cpus.itb.wrAccesses             1748527                       # TLB accesses on write requests
system.switch_cpus.itb.wrMisses                   394                       # TLB misses on write requests
system.switch_cpus.memDep0.conflictingLoads        56226                       # Number of conflicting loads.
system.switch_cpus.memDep0.conflictingStores        20334                       # Number of conflicting stores.
system.switch_cpus.memDep0.insertedLoads      3288776                       # Number of loads inserted to the mem dependence unit.
system.switch_cpus.memDep0.insertedStores       424857                       # Number of stores inserted to the mem dependence unit.
system.switch_cpus.misc_regfile_reads         6105348                       # number of misc regfile reads
system.switch_cpus.misc_regfile_writes              1                       # number of misc regfile writes
system.switch_cpus.numCycles                 17943431                       # number of cpu cycles simulated
system.switch_cpus.numWorkItemsCompleted            0                       # number of work items this cpu completed
system.switch_cpus.numWorkItemsStarted              0                       # number of work items this cpu started
system.switch_cpus.rename.BlockCycles        11098193                       # Number of cycles rename is blocking
system.switch_cpus.rename.CommittedMaps      19414359                       # Number of HB maps that are committed
system.switch_cpus.rename.IQFullEvents        1419872                       # Number of times rename has blocked due to IQ full
system.switch_cpus.rename.IdleCycles          1537854                       # Number of cycles rename is idle
system.switch_cpus.rename.LQFullEvents         632390                       # Number of times rename has blocked due to LQ full
system.switch_cpus.rename.ROBFullEvents        135500                       # Number of times rename has blocked due to ROB full
system.switch_cpus.rename.RenameLookups      49309531                       # Number of register rename lookups that rename has made
system.switch_cpus.rename.RenamedInsts       20434887                       # Number of instructions processed by rename
system.switch_cpus.rename.RenamedOperands     23708926                       # Number of destination operands rename has renamed
system.switch_cpus.rename.RunCycles           2582266                       # Number of cycles rename is running
system.switch_cpus.rename.SQFullEvents         311237                       # Number of times rename has blocked due to SQ full
system.switch_cpus.rename.SquashCycles          77868                       # Number of cycles rename is squashing
system.switch_cpus.rename.UnblockCycles       2592004                       # Number of cycles rename is unblocking
system.switch_cpus.rename.UndoneMaps          4294435                       # Number of HB maps that are undone due to squashing
system.switch_cpus.rename.fp_rename_lookups     15642928                       # Number of floating rename lookups
system.switch_cpus.rename.int_rename_lookups     19292253                       # Number of integer rename lookups
system.switch_cpus.rename.serializeStallCycles            0                       # count of cycles rename stalled for serializing inst
system.switch_cpus.rename.serializingInsts            0                       # count of serializing insts renamed
system.switch_cpus.rename.skidInsts           4246368                       # count of insts added to the skid buffer
system.switch_cpus.rename.tempSerializingInsts            0                       # count of temporary serializing insts renamed
system.switch_cpus.rob.rob_reads             35898196                       # The number of ROB reads
system.switch_cpus.rob.rob_writes            40165113                       # The number of ROB writes
system.switch_cpus.timesIdled                     613                       # Number of times that the entire CPU went into an idle state and unscheduled itself
system.tol2bus.snoop_filter.hit_multi_requests            0                       # Number of requests hitting in the snoop filter with multiple (>1) holders of the requested data.
system.tol2bus.snoop_filter.hit_multi_snoops            0                       # Number of snoops hitting in the snoop filter with multiple (>1) holders of the requested data.
system.tol2bus.snoop_filter.hit_single_requests       205792                       # Number of requests hitting in the snoop filter with a single holder of the requested data.
system.tol2bus.snoop_filter.hit_single_snoops         6664                       # Number of snoops hitting in the snoop filter with a single holder of the requested data.
system.tol2bus.snoop_filter.tot_requests       413071                       # Total number of requests made to the snoop filter.
system.tol2bus.snoop_filter.tot_snoops           6664                       # Total number of snoops made to the snoop filter.
system.membus.pwrStateResidencyTicks::UNDEFINED 359103479565500                       # Cumulative time (in ticks) in various power states
system.membus.trans_dist::ReadResp             167211                       # Transaction distribution
system.membus.trans_dist::WritebackDirty        16048                       # Transaction distribution
system.membus.trans_dist::CleanEvict           151440                       # Transaction distribution
system.membus.trans_dist::ReadExReq              4837                       # Transaction distribution
system.membus.trans_dist::ReadExResp             4837                       # Transaction distribution
system.membus.trans_dist::ReadSharedReq        167211                       # Transaction distribution
system.membus.pkt_count_system.l2.mem_side::system.mem_ctrls.port       511584                       # Packet count per connected master and slave (bytes)
system.membus.pkt_count_system.l2.mem_side::total       511584                       # Packet count per connected master and slave (bytes)
system.membus.pkt_count::total                 511584                       # Packet count per connected master and slave (bytes)
system.membus.pkt_size_system.l2.mem_side::system.mem_ctrls.port     12038144                       # Cumulative packet size per connected master and slave (bytes)
system.membus.pkt_size_system.l2.mem_side::total     12038144                       # Cumulative packet size per connected master and slave (bytes)
system.membus.pkt_size::total                12038144                       # Cumulative packet size per connected master and slave (bytes)
system.membus.snoops                                0                       # Total snoops (count)
system.membus.snoopTraffic                          0                       # Total snoop traffic (bytes)
system.membus.snoop_fanout::samples            172048                       # Request fanout histogram
system.membus.snoop_fanout::mean                    0                       # Request fanout histogram
system.membus.snoop_fanout::stdev                   0                       # Request fanout histogram
system.membus.snoop_fanout::underflows              0      0.00%      0.00% # Request fanout histogram
system.membus.snoop_fanout::0                  172048    100.00%    100.00% # Request fanout histogram
system.membus.snoop_fanout::1                       0      0.00%    100.00% # Request fanout histogram
system.membus.snoop_fanout::overflows               0      0.00%    100.00% # Request fanout histogram
system.membus.snoop_fanout::min_value               0                       # Request fanout histogram
system.membus.snoop_fanout::max_value               0                       # Request fanout histogram
system.membus.snoop_fanout::total              172048                       # Request fanout histogram
system.membus.reqLayer2.occupancy           435854951                       # Layer occupancy (ticks)
system.membus.reqLayer2.utilization               4.9                       # Layer utilization (%)
system.membus.respLayer1.occupancy          916581746                       # Layer occupancy (ticks)
system.membus.respLayer1.utilization             10.2                       # Layer utilization (%)
system.switch_cpus.pwrStateResidencyTicks::OFF   8971725500                       # Cumulative time (in ticks) in various power states
system.switch_cpus.dtb.walker.pwrStateResidencyTicks::UNDEFINED 359103479565500                       # Cumulative time (in ticks) in various power states
system.switch_cpus.itb.walker.pwrStateResidencyTicks::UNDEFINED 359103479565500                       # Cumulative time (in ticks) in various power states
system.tol2bus.pwrStateResidencyTicks::UNDEFINED 359103479565500                       # Cumulative time (in ticks) in various power states
system.tol2bus.trans_dist::ReadResp            197222                       # Transaction distribution
system.tol2bus.trans_dist::WritebackDirty        42282                       # Transaction distribution
system.tol2bus.trans_dist::WritebackClean          473                       # Transaction distribution
system.tol2bus.trans_dist::CleanEvict          332448                       # Transaction distribution
system.tol2bus.trans_dist::HardPFReq            23088                       # Transaction distribution
system.tol2bus.trans_dist::ReadExReq            10055                       # Transaction distribution
system.tol2bus.trans_dist::ReadExResp           10055                       # Transaction distribution
system.tol2bus.trans_dist::ReadCleanReq           934                       # Transaction distribution
system.tol2bus.trans_dist::ReadSharedReq       196290                       # Transaction distribution
system.tol2bus.pkt_count_system.cpu.icache.mem_side::system.l2.cpu_side         2341                       # Packet count per connected master and slave (bytes)
system.tol2bus.pkt_count_system.cpu.dcache.mem_side::system.l2.cpu_side       618007                       # Packet count per connected master and slave (bytes)
system.tol2bus.pkt_count::total                620348                       # Packet count per connected master and slave (bytes)
system.tol2bus.pkt_size_system.cpu.icache.mem_side::system.l2.cpu_side        90048                       # Cumulative packet size per connected master and slave (bytes)
system.tol2bus.pkt_size_system.cpu.dcache.mem_side::system.l2.cpu_side     14884928                       # Cumulative packet size per connected master and slave (bytes)
system.tol2bus.pkt_size::total               14974976                       # Cumulative packet size per connected master and slave (bytes)
system.tol2bus.snoops                          192499                       # Total snoops (count)
system.tol2bus.snoopTraffic                   1027072                       # Total snoop traffic (bytes)
system.tol2bus.snoop_fanout::samples           399778                       # Request fanout histogram
system.tol2bus.snoop_fanout::mean            0.016669                       # Request fanout histogram
system.tol2bus.snoop_fanout::stdev           0.128029                       # Request fanout histogram
system.tol2bus.snoop_fanout::underflows             0      0.00%      0.00% # Request fanout histogram
system.tol2bus.snoop_fanout::0                 393114     98.33%     98.33% # Request fanout histogram
system.tol2bus.snoop_fanout::1                   6664      1.67%    100.00% # Request fanout histogram
system.tol2bus.snoop_fanout::2                      0      0.00%    100.00% # Request fanout histogram
system.tol2bus.snoop_fanout::3                      0      0.00%    100.00% # Request fanout histogram
system.tol2bus.snoop_fanout::4                      0      0.00%    100.00% # Request fanout histogram
system.tol2bus.snoop_fanout::overflows              0      0.00%    100.00% # Request fanout histogram
system.tol2bus.snoop_fanout::min_value              0                       # Request fanout histogram
system.tol2bus.snoop_fanout::max_value              1                       # Request fanout histogram
system.tol2bus.snoop_fanout::total             399778                       # Request fanout histogram
system.tol2bus.reqLayer0.occupancy          233240000                       # Layer occupancy (ticks)
system.tol2bus.reqLayer0.utilization              2.6                       # Layer utilization (%)
system.tol2bus.respLayer1.occupancy         309510499                       # Layer occupancy (ticks)
system.tol2bus.respLayer1.utilization             3.4                       # Layer utilization (%)
system.tol2bus.respLayer0.occupancy           1398499                       # Layer occupancy (ticks)
system.tol2bus.respLayer0.utilization             0.0                       # Layer utilization (%)
system.voltage_domain.voltage                       1                       # Voltage in Volts
system.clk_domain.clock                          1000                       # Clock period in ticks
system.l2.pwrStateResidencyTicks::UNDEFINED 359103479565500                       # Cumulative time (in ticks) in various power states
system.l2.demand_hits::.switch_cpus.inst           67                       # number of demand (read+write) hits
system.l2.demand_hits::.switch_cpus.data        48348                       # number of demand (read+write) hits
system.l2.demand_hits::total                    48415                       # number of demand (read+write) hits
system.l2.overall_hits::.switch_cpus.inst           67                       # number of overall hits
system.l2.overall_hits::.switch_cpus.data        48348                       # number of overall hits
system.l2.overall_hits::total                   48415                       # number of overall hits
system.l2.demand_misses::.cpu.inst                  2                       # number of demand (read+write) misses
system.l2.demand_misses::.cpu.data                  3                       # number of demand (read+write) misses
system.l2.demand_misses::.switch_cpus.inst          865                       # number of demand (read+write) misses
system.l2.demand_misses::.switch_cpus.data       157994                       # number of demand (read+write) misses
system.l2.demand_misses::total                 158864                       # number of demand (read+write) misses
system.l2.overall_misses::.cpu.inst                 2                       # number of overall misses
system.l2.overall_misses::.cpu.data                 3                       # number of overall misses
system.l2.overall_misses::.switch_cpus.inst          865                       # number of overall misses
system.l2.overall_misses::.switch_cpus.data       157994                       # number of overall misses
system.l2.overall_misses::total                158864                       # number of overall misses
system.l2.demand_miss_latency::.switch_cpus.inst     73028000                       # number of demand (read+write) miss cycles
system.l2.demand_miss_latency::.switch_cpus.data  13248615500                       # number of demand (read+write) miss cycles
system.l2.demand_miss_latency::total      13321643500                       # number of demand (read+write) miss cycles
system.l2.overall_miss_latency::.switch_cpus.inst     73028000                       # number of overall miss cycles
system.l2.overall_miss_latency::.switch_cpus.data  13248615500                       # number of overall miss cycles
system.l2.overall_miss_latency::total     13321643500                       # number of overall miss cycles
system.l2.demand_accesses::.cpu.inst                2                       # number of demand (read+write) accesses
system.l2.demand_accesses::.cpu.data                3                       # number of demand (read+write) accesses
system.l2.demand_accesses::.switch_cpus.inst          932                       # number of demand (read+write) accesses
system.l2.demand_accesses::.switch_cpus.data       206342                       # number of demand (read+write) accesses
system.l2.demand_accesses::total               207279                       # number of demand (read+write) accesses
system.l2.overall_accesses::.cpu.inst               2                       # number of overall (read+write) accesses
system.l2.overall_accesses::.cpu.data               3                       # number of overall (read+write) accesses
system.l2.overall_accesses::.switch_cpus.inst          932                       # number of overall (read+write) accesses
system.l2.overall_accesses::.switch_cpus.data       206342                       # number of overall (read+write) accesses
system.l2.overall_accesses::total              207279                       # number of overall (read+write) accesses
system.l2.demand_miss_rate::.cpu.inst               1                       # miss rate for demand accesses
system.l2.demand_miss_rate::.cpu.data               1                       # miss rate for demand accesses
system.l2.demand_miss_rate::.switch_cpus.inst     0.928112                       # miss rate for demand accesses
system.l2.demand_miss_rate::.switch_cpus.data     0.765690                       # miss rate for demand accesses
system.l2.demand_miss_rate::total            0.766426                       # miss rate for demand accesses
system.l2.overall_miss_rate::.cpu.inst              1                       # miss rate for overall accesses
system.l2.overall_miss_rate::.cpu.data              1                       # miss rate for overall accesses
system.l2.overall_miss_rate::.switch_cpus.inst     0.928112                       # miss rate for overall accesses
system.l2.overall_miss_rate::.switch_cpus.data     0.765690                       # miss rate for overall accesses
system.l2.overall_miss_rate::total           0.766426                       # miss rate for overall accesses
system.l2.demand_avg_miss_latency::.switch_cpus.inst 84425.433526                       # average overall miss latency
system.l2.demand_avg_miss_latency::.switch_cpus.data 83855.181209                       # average overall miss latency
system.l2.demand_avg_miss_latency::total 83855.646968                       # average overall miss latency
system.l2.overall_avg_miss_latency::.switch_cpus.inst 84425.433526                       # average overall miss latency
system.l2.overall_avg_miss_latency::.switch_cpus.data 83855.181209                       # average overall miss latency
system.l2.overall_avg_miss_latency::total 83855.646968                       # average overall miss latency
system.l2.blocked_cycles::no_mshrs                  0                       # number of cycles access was blocked
system.l2.blocked_cycles::no_targets                0                       # number of cycles access was blocked
system.l2.blocked::no_mshrs                         0                       # number of cycles access was blocked
system.l2.blocked::no_targets                       0                       # number of cycles access was blocked
system.l2.avg_blocked_cycles::no_mshrs            nan                       # average number of cycles each access was blocked
system.l2.avg_blocked_cycles::no_targets          nan                       # average number of cycles each access was blocked
system.l2.unused_prefetches                      1261                       # number of HardPF blocks evicted w/o reference
system.l2.writebacks::.writebacks               16048                       # number of writebacks
system.l2.writebacks::total                     16048                       # number of writebacks
system.l2.demand_mshr_hits::.switch_cpus.data            5                       # number of demand (read+write) MSHR hits
system.l2.demand_mshr_hits::total                   5                       # number of demand (read+write) MSHR hits
system.l2.overall_mshr_hits::.switch_cpus.data            5                       # number of overall MSHR hits
system.l2.overall_mshr_hits::total                  5                       # number of overall MSHR hits
system.l2.demand_mshr_misses::.switch_cpus.inst          865                       # number of demand (read+write) MSHR misses
system.l2.demand_mshr_misses::.switch_cpus.data       157989                       # number of demand (read+write) MSHR misses
system.l2.demand_mshr_misses::total            158854                       # number of demand (read+write) MSHR misses
system.l2.overall_mshr_misses::.l2.prefetcher        13193                       # number of overall MSHR misses
system.l2.overall_mshr_misses::.switch_cpus.inst          865                       # number of overall MSHR misses
system.l2.overall_mshr_misses::.switch_cpus.data       157989                       # number of overall MSHR misses
system.l2.overall_mshr_misses::total           172047                       # number of overall MSHR misses
system.l2.demand_mshr_miss_latency::.switch_cpus.inst     64378000                       # number of demand (read+write) MSHR miss cycles
system.l2.demand_mshr_miss_latency::.switch_cpus.data  11668607000                       # number of demand (read+write) MSHR miss cycles
system.l2.demand_mshr_miss_latency::total  11732985000                       # number of demand (read+write) MSHR miss cycles
system.l2.overall_mshr_miss_latency::.l2.prefetcher    894542492                       # number of overall MSHR miss cycles
system.l2.overall_mshr_miss_latency::.switch_cpus.inst     64378000                       # number of overall MSHR miss cycles
system.l2.overall_mshr_miss_latency::.switch_cpus.data  11668607000                       # number of overall MSHR miss cycles
system.l2.overall_mshr_miss_latency::total  12627527492                       # number of overall MSHR miss cycles
system.l2.demand_mshr_miss_rate::.switch_cpus.inst     0.928112                       # mshr miss rate for demand accesses
system.l2.demand_mshr_miss_rate::.switch_cpus.data     0.765666                       # mshr miss rate for demand accesses
system.l2.demand_mshr_miss_rate::total       0.766378                       # mshr miss rate for demand accesses
system.l2.overall_mshr_miss_rate::.l2.prefetcher          inf                       # mshr miss rate for overall accesses
system.l2.overall_mshr_miss_rate::.switch_cpus.inst     0.928112                       # mshr miss rate for overall accesses
system.l2.overall_mshr_miss_rate::.switch_cpus.data     0.765666                       # mshr miss rate for overall accesses
system.l2.overall_mshr_miss_rate::total      0.830026                       # mshr miss rate for overall accesses
system.l2.demand_avg_mshr_miss_latency::.switch_cpus.inst 74425.433526                       # average overall mshr miss latency
system.l2.demand_avg_mshr_miss_latency::.switch_cpus.data 73857.084987                       # average overall mshr miss latency
system.l2.demand_avg_mshr_miss_latency::total 73860.179788                       # average overall mshr miss latency
system.l2.overall_avg_mshr_miss_latency::.l2.prefetcher 67804.327446                       # average overall mshr miss latency
system.l2.overall_avg_mshr_miss_latency::.switch_cpus.inst 74425.433526                       # average overall mshr miss latency
system.l2.overall_avg_mshr_miss_latency::.switch_cpus.data 73857.084987                       # average overall mshr miss latency
system.l2.overall_avg_mshr_miss_latency::total 73395.801682                       # average overall mshr miss latency
system.l2.replacements                         169411                       # number of replacements
system.l2.WritebackDirty_hits::.writebacks        26234                       # number of WritebackDirty hits
system.l2.WritebackDirty_hits::total            26234                       # number of WritebackDirty hits
system.l2.WritebackDirty_accesses::.writebacks        26234                       # number of WritebackDirty accesses(hits+misses)
system.l2.WritebackDirty_accesses::total        26234                       # number of WritebackDirty accesses(hits+misses)
system.l2.WritebackClean_hits::.writebacks          473                       # number of WritebackClean hits
system.l2.WritebackClean_hits::total              473                       # number of WritebackClean hits
system.l2.WritebackClean_accesses::.writebacks          473                       # number of WritebackClean accesses(hits+misses)
system.l2.WritebackClean_accesses::total          473                       # number of WritebackClean accesses(hits+misses)
system.l2.CleanEvict_mshr_misses::.writebacks         4739                       # number of CleanEvict MSHR misses
system.l2.CleanEvict_mshr_misses::total          4739                       # number of CleanEvict MSHR misses
system.l2.CleanEvict_mshr_miss_rate::.writebacks          inf                       # mshr miss rate for CleanEvict accesses
system.l2.CleanEvict_mshr_miss_rate::total          inf                       # mshr miss rate for CleanEvict accesses
system.l2.HardPFReq_mshr_misses::.l2.prefetcher        13193                       # number of HardPFReq MSHR misses
system.l2.HardPFReq_mshr_misses::total          13193                       # number of HardPFReq MSHR misses
system.l2.HardPFReq_mshr_miss_latency::.l2.prefetcher    894542492                       # number of HardPFReq MSHR miss cycles
system.l2.HardPFReq_mshr_miss_latency::total    894542492                       # number of HardPFReq MSHR miss cycles
system.l2.HardPFReq_mshr_miss_rate::.l2.prefetcher          inf                       # mshr miss rate for HardPFReq accesses
system.l2.HardPFReq_mshr_miss_rate::total          inf                       # mshr miss rate for HardPFReq accesses
system.l2.HardPFReq_avg_mshr_miss_latency::.l2.prefetcher 67804.327446                       # average HardPFReq mshr miss latency
system.l2.HardPFReq_avg_mshr_miss_latency::total 67804.327446                       # average HardPFReq mshr miss latency
system.l2.ReadExReq_hits::.switch_cpus.data         5218                       # number of ReadExReq hits
system.l2.ReadExReq_hits::total                  5218                       # number of ReadExReq hits
system.l2.ReadExReq_misses::.switch_cpus.data         4837                       # number of ReadExReq misses
system.l2.ReadExReq_misses::total                4837                       # number of ReadExReq misses
system.l2.ReadExReq_miss_latency::.switch_cpus.data    419398000                       # number of ReadExReq miss cycles
system.l2.ReadExReq_miss_latency::total     419398000                       # number of ReadExReq miss cycles
system.l2.ReadExReq_accesses::.switch_cpus.data        10055                       # number of ReadExReq accesses(hits+misses)
system.l2.ReadExReq_accesses::total             10055                       # number of ReadExReq accesses(hits+misses)
system.l2.ReadExReq_miss_rate::.switch_cpus.data     0.481054                       # miss rate for ReadExReq accesses
[...]
system.cpu.icache.tags.data_accesses         14010953                       # Number of data accesses
system.cpu.dtb.walker.pwrStateResidencyTicks::UNDEFINED 359130637732500                       # Cumulative time (in ticks) in various power states
system.cpu.interrupts.clk_domain.clock           8000                       # Clock period in ticks
system.cpu.itb_walker_cache.pwrStateResidencyTicks::UNDEFINED 359130637732500                       # Cumulative time (in ticks) in various power states
system.cpu.itb_walker_cache.blocked_cycles::no_mshrs            0                       # number of cycles access was blocked
system.cpu.itb_walker_cache.blocked_cycles::no_targets            0                       # number of cycles access was blocked
system.cpu.itb_walker_cache.blocked::no_mshrs            0                       # number of cycles access was blocked
system.cpu.itb_walker_cache.blocked::no_targets            0                       # number of cycles access was blocked
system.cpu.itb_walker_cache.avg_blocked_cycles::no_mshrs          nan                       # average number of cycles each access was blocked
system.cpu.itb_walker_cache.avg_blocked_cycles::no_targets          nan                       # average number of cycles each access was blocked
system.cpu.itb_walker_cache.replacements            0                       # number of replacements
system.cpu.itb_walker_cache.tags.pwrStateResidencyTicks::UNDEFINED 359130637732500                       # Cumulative time (in ticks) in various power states
system.cpu.itb_walker_cache.tags.tagsinuse            0                       # Cycle average of tags in use
system.cpu.itb_walker_cache.tags.total_refs            0                       # Total number of references to valid blocks.
system.cpu.itb_walker_cache.tags.sampled_refs            0                       # Sample count of references to valid blocks.
system.cpu.itb_walker_cache.tags.avg_refs          nan                       # Average number of references to valid blocks.
system.cpu.itb_walker_cache.tags.warmup_cycle            0                       # Cycle when the warmup percentage was hit.
system.cpu.itb_walker_cache.tags.tag_accesses            0                       # Number of tag accesses
system.cpu.itb_walker_cache.tags.data_accesses            0                       # Number of data accesses
system.cpu.itb.walker.pwrStateResidencyTicks::UNDEFINED 359130637732500                       # Cumulative time (in ticks) in various power states
system.cpu.dtb_walker_cache.pwrStateResidencyTicks::UNDEFINED 359130637732500                       # Cumulative time (in ticks) in various power states
system.cpu.dtb_walker_cache.blocked_cycles::no_mshrs            0                       # number of cycles access was blocked
system.cpu.dtb_walker_cache.blocked_cycles::no_targets            0                       # number of cycles access was blocked
system.cpu.dtb_walker_cache.blocked::no_mshrs            0                       # number of cycles access was blocked
system.cpu.dtb_walker_cache.blocked::no_targets            0                       # number of cycles access was blocked
system.cpu.dtb_walker_cache.avg_blocked_cycles::no_mshrs          nan                       # average number of cycles each access was blocked
system.cpu.dtb_walker_cache.avg_blocked_cycles::no_targets          nan                       # average number of cycles each access was blocked
system.cpu.dtb_walker_cache.replacements            0                       # number of replacements
system.cpu.dtb_walker_cache.tags.pwrStateResidencyTicks::UNDEFINED 359130637732500                       # Cumulative time (in ticks) in various power states
system.cpu.dtb_walker_cache.tags.tagsinuse            0                       # Cycle average of tags in use
system.cpu.dtb_walker_cache.tags.total_refs            0                       # Total number of references to valid blocks.
system.cpu.dtb_walker_cache.tags.sampled_refs            0                       # Sample count of references to valid blocks.
system.cpu.dtb_walker_cache.tags.avg_refs          nan                       # Average number of references to valid blocks.
system.cpu.dtb_walker_cache.tags.warmup_cycle            0                       # Cycle when the warmup percentage was hit.
system.cpu.dtb_walker_cache.tags.tag_accesses            0                       # Number of tag accesses
system.cpu.dtb_walker_cache.tags.data_accesses            0                       # Number of data accesses
system.cpu.dcache.pwrStateResidencyTicks::UNDEFINED 359130637732500                       # Cumulative time (in ticks) in various power states
system.cpu.dcache.demand_hits::.cpu.data            1                       # number of demand (read+write) hits
system.cpu.dcache.demand_hits::.switch_cpus.data     10703537                       # number of demand (read+write) hits
system.cpu.dcache.demand_hits::total         10703538                       # number of demand (read+write) hits
system.cpu.dcache.overall_hits::.cpu.data            1                       # number of overall hits
system.cpu.dcache.overall_hits::.switch_cpus.data     10703537                       # number of overall hits
system.cpu.dcache.overall_hits::total        10703538                       # number of overall hits
system.cpu.dcache.demand_misses::.cpu.data            3                       # number of demand (read+write) misses
system.cpu.dcache.demand_misses::.switch_cpus.data      3186109                       # number of demand (read+write) misses
system.cpu.dcache.demand_misses::total        3186112                       # number of demand (read+write) misses
system.cpu.dcache.overall_misses::.cpu.data            3                       # number of overall misses
system.cpu.dcache.overall_misses::.switch_cpus.data      3186109                       # number of overall misses
system.cpu.dcache.overall_misses::total       3186112                       # number of overall misses
system.cpu.dcache.demand_miss_latency::.switch_cpus.data 204039414406                       # number of demand (read+write) miss cycles
system.cpu.dcache.demand_miss_latency::total 204039414406                       # number of demand (read+write) miss cycles
system.cpu.dcache.overall_miss_latency::.switch_cpus.data 204039414406                       # number of overall miss cycles
system.cpu.dcache.overall_miss_latency::total 204039414406                       # number of overall miss cycles
system.cpu.dcache.demand_accesses::.cpu.data            4                       # number of demand (read+write) accesses
system.cpu.dcache.demand_accesses::.switch_cpus.data     13889646                       # number of demand (read+write) accesses
system.cpu.dcache.demand_accesses::total     13889650                       # number of demand (read+write) accesses
system.cpu.dcache.overall_accesses::.cpu.data            4                       # number of overall (read+write) accesses
system.cpu.dcache.overall_accesses::.switch_cpus.data     13889646                       # number of overall (read+write) accesses
system.cpu.dcache.overall_accesses::total     13889650                       # number of overall (read+write) accesses
system.cpu.dcache.demand_miss_rate::.cpu.data     0.750000                       # miss rate for demand accesses
system.cpu.dcache.demand_miss_rate::.switch_cpus.data     0.229387                       # miss rate for demand accesses
system.cpu.dcache.demand_miss_rate::total     0.229387                       # miss rate for demand accesses
system.cpu.dcache.overall_miss_rate::.cpu.data     0.750000                       # miss rate for overall accesses
system.cpu.dcache.overall_miss_rate::.switch_cpus.data     0.229387                       # miss rate for overall accesses
system.cpu.dcache.overall_miss_rate::total     0.229387                       # miss rate for overall accesses
system.cpu.dcache.demand_avg_miss_latency::.switch_cpus.data 64040.311994                       # average overall miss latency
system.cpu.dcache.demand_avg_miss_latency::total 64040.251694                       # average overall miss latency
system.cpu.dcache.overall_avg_miss_latency::.switch_cpus.data 64040.311994                       # average overall miss latency
system.cpu.dcache.overall_avg_miss_latency::total 64040.251694                       # average overall miss latency
system.cpu.dcache.blocked_cycles::no_mshrs      4202325                       # number of cycles access was blocked
system.cpu.dcache.blocked_cycles::no_targets            0                       # number of cycles access was blocked
system.cpu.dcache.blocked::no_mshrs            121349                       # number of cycles access was blocked
system.cpu.dcache.blocked::no_targets               0                       # number of cycles access was blocked
system.cpu.dcache.avg_blocked_cycles::no_mshrs    34.630075                       # average number of cycles each access was blocked
system.cpu.dcache.avg_blocked_cycles::no_targets          nan                       # average number of cycles each access was blocked
system.cpu.dcache.writebacks::.writebacks       111521                       # number of writebacks
system.cpu.dcache.writebacks::total            111521                       # number of writebacks
system.cpu.dcache.demand_mshr_hits::.switch_cpus.data      2353144                       # number of demand (read+write) MSHR hits
system.cpu.dcache.demand_mshr_hits::total      2353144                       # number of demand (read+write) MSHR hits
system.cpu.dcache.overall_mshr_hits::.switch_cpus.data      2353144                       # number of overall MSHR hits
system.cpu.dcache.overall_mshr_hits::total      2353144                       # number of overall MSHR hits
system.cpu.dcache.demand_mshr_misses::.switch_cpus.data       832965                       # number of demand (read+write) MSHR misses
system.cpu.dcache.demand_mshr_misses::total       832965                       # number of demand (read+write) MSHR misses
system.cpu.dcache.overall_mshr_misses::.switch_cpus.data       832965                       # number of overall MSHR misses
system.cpu.dcache.overall_mshr_misses::total       832965                       # number of overall MSHR misses
system.cpu.dcache.demand_mshr_miss_latency::.switch_cpus.data  56652050907                       # number of demand (read+write) MSHR miss cycles
system.cpu.dcache.demand_mshr_miss_latency::total  56652050907                       # number of demand (read+write) MSHR miss cycles
system.cpu.dcache.overall_mshr_miss_latency::.switch_cpus.data  56652050907                       # number of overall MSHR miss cycles
system.cpu.dcache.overall_mshr_miss_latency::total  56652050907                       # number of overall MSHR miss cycles
system.cpu.dcache.demand_mshr_miss_rate::.switch_cpus.data     0.059970                       # mshr miss rate for demand accesses
system.cpu.dcache.demand_mshr_miss_rate::total     0.059970                       # mshr miss rate for demand accesses
system.cpu.dcache.overall_mshr_miss_rate::.switch_cpus.data     0.059970                       # mshr miss rate for overall accesses
system.cpu.dcache.overall_mshr_miss_rate::total     0.059970                       # mshr miss rate for overall accesses
system.cpu.dcache.demand_avg_mshr_miss_latency::.switch_cpus.data 68012.522623                       # average overall mshr miss latency
system.cpu.dcache.demand_avg_mshr_miss_latency::total 68012.522623                       # average overall mshr miss latency
system.cpu.dcache.overall_avg_mshr_miss_latency::.switch_cpus.data 68012.522623                       # average overall mshr miss latency
system.cpu.dcache.overall_avg_mshr_miss_latency::total 68012.522623                       # average overall mshr miss latency
system.cpu.dcache.replacements                 831944                       # number of replacements
system.cpu.dcache.ReadReq_hits::.cpu.data            1                       # number of ReadReq hits
system.cpu.dcache.ReadReq_hits::.switch_cpus.data      9365607                       # number of ReadReq hits
system.cpu.dcache.ReadReq_hits::total         9365608                       # number of ReadReq hits
system.cpu.dcache.ReadReq_misses::.cpu.data            3                       # number of ReadReq misses
system.cpu.dcache.ReadReq_misses::.switch_cpus.data      3144766                       # number of ReadReq misses
system.cpu.dcache.ReadReq_misses::total       3144769                       # number of ReadReq misses
system.cpu.dcache.ReadReq_miss_latency::.switch_cpus.data 201977463500                       # number of ReadReq miss cycles
system.cpu.dcache.ReadReq_miss_latency::total 201977463500                       # number of ReadReq miss cycles
system.cpu.dcache.ReadReq_accesses::.cpu.data            4                       # number of ReadReq accesses(hits+misses)
system.cpu.dcache.ReadReq_accesses::.switch_cpus.data     12510373                       # number of ReadReq accesses(hits+misses)
system.cpu.dcache.ReadReq_accesses::total     12510377                       # number of ReadReq accesses(hits+misses)
system.cpu.dcache.ReadReq_miss_rate::.cpu.data     0.750000                       # miss rate for ReadReq accesses
system.cpu.dcache.ReadReq_miss_rate::.switch_cpus.data     0.251373                       # miss rate for ReadReq accesses
system.cpu.dcache.ReadReq_miss_rate::total     0.251373                       # miss rate for ReadReq accesses
system.cpu.dcache.ReadReq_avg_miss_latency::.switch_cpus.data 64226.547699                       # average ReadReq miss latency
system.cpu.dcache.ReadReq_avg_miss_latency::total 64226.486429                       # average ReadReq miss latency
system.cpu.dcache.ReadReq_mshr_hits::.switch_cpus.data      2352838                       # number of ReadReq MSHR hits
system.cpu.dcache.ReadReq_mshr_hits::total      2352838                       # number of ReadReq MSHR hits
system.cpu.dcache.ReadReq_mshr_misses::.switch_cpus.data       791928                       # number of ReadReq MSHR misses
system.cpu.dcache.ReadReq_mshr_misses::total       791928                       # number of ReadReq MSHR misses
system.cpu.dcache.ReadReq_mshr_miss_latency::.switch_cpus.data  54646718500                       # number of ReadReq MSHR miss cycles
system.cpu.dcache.ReadReq_mshr_miss_latency::total  54646718500                       # number of ReadReq MSHR miss cycles
system.cpu.dcache.ReadReq_mshr_miss_rate::.switch_cpus.data     0.063302                       # mshr miss rate for ReadReq accesses
system.cpu.dcache.ReadReq_mshr_miss_rate::total     0.063302                       # mshr miss rate for ReadReq accesses
system.cpu.dcache.ReadReq_avg_mshr_miss_latency::.switch_cpus.data 69004.655095                       # average ReadReq mshr miss latency
system.cpu.dcache.ReadReq_avg_mshr_miss_latency::total 69004.655095                       # average ReadReq mshr miss latency
system.cpu.dcache.WriteReq_hits::.switch_cpus.data      1337930                       # number of WriteReq hits
system.cpu.dcache.WriteReq_hits::total        1337930                       # number of WriteReq hits
system.cpu.dcache.WriteReq_misses::.switch_cpus.data        41343                       # number of WriteReq misses
system.cpu.dcache.WriteReq_misses::total        41343                       # number of WriteReq misses
system.cpu.dcache.WriteReq_miss_latency::.switch_cpus.data   2061950906                       # number of WriteReq miss cycles
system.cpu.dcache.WriteReq_miss_latency::total   2061950906                       # number of WriteReq miss cycles
system.cpu.dcache.WriteReq_accesses::.switch_cpus.data      1379273                       # number of WriteReq accesses(hits+misses)
system.cpu.dcache.WriteReq_accesses::total      1379273                       # number of WriteReq accesses(hits+misses)
system.cpu.dcache.WriteReq_miss_rate::.switch_cpus.data     0.029974                       # miss rate for WriteReq accesses
system.cpu.dcache.WriteReq_miss_rate::total     0.029974                       # miss rate for WriteReq accesses
system.cpu.dcache.WriteReq_avg_miss_latency::.switch_cpus.data 49874.244878                       # average WriteReq miss latency
system.cpu.dcache.WriteReq_avg_miss_latency::total 49874.244878                       # average WriteReq miss latency
system.cpu.dcache.WriteReq_mshr_hits::.switch_cpus.data          306                       # number of WriteReq MSHR hits
system.cpu.dcache.WriteReq_mshr_hits::total          306                       # number of WriteReq MSHR hits
system.cpu.dcache.WriteReq_mshr_misses::.switch_cpus.data        41037                       # number of WriteReq MSHR misses
system.cpu.dcache.WriteReq_mshr_misses::total        41037                       # number of WriteReq MSHR misses
system.cpu.dcache.WriteReq_mshr_miss_latency::.switch_cpus.data   2005332407                       # number of WriteReq MSHR miss cycles
system.cpu.dcache.WriteReq_mshr_miss_latency::total   2005332407                       # number of WriteReq MSHR miss cycles
system.cpu.dcache.WriteReq_mshr_miss_rate::.switch_cpus.data     0.029753                       # mshr miss rate for WriteReq accesses
system.cpu.dcache.WriteReq_mshr_miss_rate::total     0.029753                       # mshr miss rate for WriteReq accesses
system.cpu.dcache.WriteReq_avg_mshr_miss_latency::.switch_cpus.data 48866.447523                       # average WriteReq mshr miss latency
system.cpu.dcache.WriteReq_avg_mshr_miss_latency::total 48866.447523                       # average WriteReq mshr miss latency
system.cpu.dcache.tags.pwrStateResidencyTicks::UNDEFINED 359130637732500                       # Cumulative time (in ticks) in various power states
system.cpu.dcache.tags.tagsinuse             0.102939                       # Cycle average of tags in use
system.cpu.dcache.tags.total_refs            11536506                       # Total number of references to valid blocks.
system.cpu.dcache.tags.sampled_refs            832968                       # Sample count of references to valid blocks.
system.cpu.dcache.tags.avg_refs             13.849879                       # Average number of references to valid blocks.
system.cpu.dcache.tags.warmup_cycle      359094507845000                       # Cycle when the warmup percentage was hit.
system.cpu.dcache.tags.occ_blocks::.cpu.data     0.000002                       # Average occupied blocks per requestor
system.cpu.dcache.tags.occ_blocks::.switch_cpus.data     0.102938                       # Average occupied blocks per requestor
system.cpu.dcache.tags.occ_percent::.cpu.data     0.000000                       # Average percentage of cache occupancy
system.cpu.dcache.tags.occ_percent::.switch_cpus.data     0.000101                       # Average percentage of cache occupancy
system.cpu.dcache.tags.occ_percent::total     0.000101                       # Average percentage of cache occupancy
system.cpu.dcache.tags.occ_task_id_blocks::1024         1024                       # Occupied blocks per task id
system.cpu.dcache.tags.age_task_id_blocks_1024::0          235                       # Occupied blocks per task id
system.cpu.dcache.tags.age_task_id_blocks_1024::1          709                       # Occupied blocks per task id
system.cpu.dcache.tags.age_task_id_blocks_1024::2           80                       # Occupied blocks per task id
system.cpu.dcache.tags.occ_task_id_percent::1024            1                       # Percentage of cache occupancy per task id
system.cpu.dcache.tags.tag_accesses          28612268                       # Number of tag accesses
system.cpu.dcache.tags.data_accesses         28612268                       # Number of data accesses

---------- End Simulation Statistics   ----------
