
---------- Begin Simulation Statistics ----------
final_tick                               92843246910000                       # Number of ticks from beginning of simulation (restored from checkpoints and never reset)
host_inst_rate                                  21503                       # Simulator instruction rate (inst/s)
host_mem_usage                                 827592                       # Number of bytes of host memory used
host_op_rate                                    34844                       # Simulator op (including micro ops) rate (op/s)
host_seconds                                   465.06                       # Real time elapsed on the host
host_tick_rate                              133641522                       # Simulator tick rate (ticks/s)
sim_freq                                 1000000000000                       # Frequency of simulated ticks
sim_insts                                    10000010                       # Number of instructions simulated
sim_ops                                      16204568                       # Number of ops (including micro ops) simulated
sim_seconds                                  0.062151                       # Number of seconds simulated
sim_ticks                                 62151483750                       # Number of ticks simulated
system.cpu.Branches                                 3                       # Number of branches fetched
system.cpu.committedInsts                          10                       # Number of instructions committed
system.cpu.committedOps                            18                       # Number of ops (including micro ops) committed
system.cpu.dtb.rdAccesses                           4                       # TLB accesses on read requests
system.cpu.dtb.rdMisses                             0                       # TLB misses on read requests
system.cpu.dtb.wrAccesses                           0                       # TLB accesses on write requests
system.cpu.dtb.wrMisses                             0                       # TLB misses on write requests
system.cpu.idle_fraction                            0                       # Percentage of idle cycles
system.cpu.itb.rdAccesses                           0                       # TLB accesses on read requests
system.cpu.itb.rdMisses                             0                       # TLB misses on read requests
system.cpu.itb.wrAccesses                          13                       # TLB accesses on write requests
system.cpu.itb.wrMisses                             0                       # TLB misses on write requests
system.cpu.not_idle_fraction                        1                       # Percentage of non-idle cycles
system.cpu.numCycles                               21                       # number of cpu cycles simulated
system.cpu.numWorkItemsCompleted                    0                       # number of work items this cpu completed
system.cpu.numWorkItemsStarted                      0                       # number of work items this cpu started
system.cpu.num_busy_cycles                         21                       # Number of busy cycles
system.cpu.num_cc_register_reads                   16                       # number of times the CC registers were read
system.cpu.num_cc_register_writes                   8                       # number of times the CC registers were written
system.cpu.num_conditional_control_insts            3                       # number of instructions that are conditional controls
system.cpu.num_fp_alu_accesses                      0                       # Number of float alu accesses
system.cpu.num_fp_insts                             0                       # number of float instructions
system.cpu.num_fp_register_reads                    0                       # number of times the floating registers were read
system.cpu.num_fp_register_writes                   0                       # number of times the floating registers were written
system.cpu.num_func_calls                           0                       # number of times a function call or return occured
system.cpu.num_idle_cycles                          0                       # Number of idle cycles
system.cpu.num_int_alu_accesses                    18                       # Number of integer alu accesses
system.cpu.num_int_insts                           18                       # number of integer instructions
system.cpu.num_int_register_reads                  33                       # number of times the integer registers were read
system.cpu.num_int_register_writes                 15                       # number of times the integer registers were written
system.cpu.num_load_insts                           4                       # Number of load instructions
system.cpu.num_mem_refs                             4                       # number of memory refs
system.cpu.num_store_insts                          0                       # Number of store instructions
system.cpu.num_vec_alu_accesses                     0                       # Number of vector alu accesses
system.cpu.num_vec_insts                            0                       # number of vector instructions
system.cpu.num_vec_register_reads                   0                       # number of times the vector registers were read
system.cpu.num_vec_register_writes                  0                       # number of times the vector registers were written
system.cpu.op_class::No_OpClass                     0      0.00%      0.00% # Class of executed instruction
system.cpu.op_class::IntAlu                        14     77.78%     77.78% # Class of executed instruction
system.cpu.op_class::IntMult                        0      0.00%     77.78% # Class of executed instruction
system.cpu.op_class::IntDiv                         0      0.00%     77.78% # Class of executed instruction
system.cpu.op_class::FloatAdd                       0      0.00%     77.78% # Class of executed instruction
system.cpu.op_class::FloatCmp                       0      0.00%     77.78% # Class of executed instruction
system.cpu.op_class::FloatCvt                       0      0.00%     77.78% # Class of executed instruction
system.cpu.op_class::FloatMult                      0      0.00%     77.78% # Class of executed instruction
system.cpu.op_class::FloatMultAcc                   0      0.00%     77.78% # Class of executed instruction
system.cpu.op_class::FloatDiv                       0      0.00%     77.78% # Class of executed instruction
system.cpu.op_class::FloatMisc                      0      0.00%     77.78% # Class of executed instruction
system.cpu.op_class::FloatSqrt                      0      0.00%     77.78% # Class of executed instruction
system.cpu.op_class::SimdAdd                        0      0.00%     77.78% # Class of executed instruction
system.cpu.op_class::SimdAddAcc                     0      0.00%     77.78% # Class of executed instruction
system.cpu.op_class::SimdAlu                        0      0.00%     77.78% # Class of executed instruction
system.cpu.op_class::SimdCmp                        0      0.00%     77.78% # Class of executed instruction
system.cpu.op_class::SimdCvt                        0      0.00%     77.78% # Class of executed instruction
system.cpu.op_class::SimdMisc                       0      0.00%     77.78% # Class of executed instruction
system.cpu.op_class::SimdMult                       0      0.00%     77.78% # Class of executed instruction
system.cpu.op_class::SimdMultAcc                    0      0.00%     77.78% # Class of executed instruction
system.cpu.op_class::SimdShift                      0      0.00%     77.78% # Class of executed instruction
system.cpu.op_class::SimdShiftAcc                   0      0.00%     77.78% # Class of executed instruction
system.cpu.op_class::SimdDiv                        0      0.00%     77.78% # Class of executed instruction
system.cpu.op_class::SimdSqrt                       0      0.00%     77.78% # Class of executed instruction
system.cpu.op_class::SimdFloatAdd                   0      0.00%     77.78% # Class of executed instruction
system.cpu.op_class::SimdFloatAlu                   0      0.00%     77.78% # Class of executed instruction
system.cpu.op_class::SimdFloatCmp                   0      0.00%     77.78% # Class of executed instruction
system.cpu.op_class::SimdFloatCvt                   0      0.00%     77.78% # Class of executed instruction
system.cpu.op_class::SimdFloatDiv                   0      0.00%     77.78% # Class of executed instruction
system.cpu.op_class::SimdFloatMisc                  0      0.00%     77.78% # Class of executed instruction
system.cpu.op_class::SimdFloatMult                  0      0.00%     77.78% # Class of executed instruction
system.cpu.op_class::SimdFloatMultAcc               0      0.00%     77.78% # Class of executed instruction
system.cpu.op_class::SimdFloatSqrt                  0      0.00%     77.78% # Class of executed instruction
system.cpu.op_class::SimdReduceAdd                  0      0.00%     77.78% # Class of executed instruction
system.cpu.op_class::SimdReduceAlu                  0      0.00%     77.78% # Class of executed instruction
system.cpu.op_class::SimdReduceCmp                  0      0.00%     77.78% # Class of executed instruction
system.cpu.op_class::SimdFloatReduceAdd             0      0.00%     77.78% # Class of executed instruction
system.cpu.op_class::SimdFloatReduceCmp             0      0.00%     77.78% # Class of executed instruction
system.cpu.op_class::SimdAes                        0      0.00%     77.78% # Class of executed instruction
system.cpu.op_class::SimdAesMix                     0      0.00%     77.78% # Class of executed instruction
system.cpu.op_class::SimdSha1Hash                   0      0.00%     77.78% # Class of executed instruction
system.cpu.op_class::SimdSha1Hash2                  0      0.00%     77.78% # Class of executed instruction
system.cpu.op_class::SimdSha256Hash                 0      0.00%     77.78% # Class of executed instruction
system.cpu.op_class::SimdSha256Hash2                0      0.00%     77.78% # Class of executed instruction
system.cpu.op_class::SimdShaSigma2                  0      0.00%     77.78% # Class of executed instruction
system.cpu.op_class::SimdShaSigma3                  0      0.00%     77.78% # Class of executed instruction
system.cpu.op_class::SimdPredAlu                    0      0.00%     77.78% # Class of executed instruction
system.cpu.op_class::MemRead                        4     22.22%    100.00% # Class of executed instruction
system.cpu.op_class::MemWrite                       0      0.00%    100.00% # Class of executed instruction
system.cpu.op_class::FloatMemRead                   0      0.00%    100.00% # Class of executed instruction
system.cpu.op_class::FloatMemWrite                  0      0.00%    100.00% # Class of executed instruction
system.cpu.op_class::IprAccess                      0      0.00%    100.00% # Class of executed instruction
system.cpu.op_class::InstPrefetch                   0      0.00%    100.00% # Class of executed instruction
system.cpu.op_class::total                         18                       # Class of executed instruction
system.cpu.workload.numSyscalls                     0                       # Number of system calls
system.membus.snoop_filter.hit_multi_requests            0                       # Number of requests hitting in the snoop filter with multiple (>1) holders of the requested data.
system.membus.snoop_filter.hit_multi_snoops            0                       # Number of snoops hitting in the snoop filter with multiple (>1) holders of the requested data.
system.membus.snoop_filter.hit_single_requests      1535578                       # Number of requests hitting in the snoop filter with a single holder of the requested data.
system.membus.snoop_filter.hit_single_snoops            0                       # Number of snoops hitting in the snoop filter with a single holder of the requested data.
system.membus.snoop_filter.tot_requests       3075282                       # Total number of requests made to the snoop filter.
system.membus.snoop_filter.tot_snoops               0                       # Total number of snoops made to the snoop filter.
system.switch_cpus.branchPred.BTBCorrect            0                       # Number of correct BTB predictions (this stat may not work properly.
system.switch_cpus.branchPred.BTBHitPct      0.000000                       # BTB Hit Percentage
system.switch_cpus.branchPred.BTBHits               0                       # Number of BTB hits
system.switch_cpus.branchPred.BTBLookups      1950923                       # Number of BTB lookups
system.switch_cpus.branchPred.RASInCorrect            0                       # Number of incorrect RAS predictions.
system.switch_cpus.branchPred.condIncorrect       173852                       # Number of conditional branches incorrect
system.switch_cpus.branchPred.condPredicted      4327284                       # Number of conditional branches predicted
system.switch_cpus.branchPred.indirectHits      1608523                       # Number of indirect target hits.
system.switch_cpus.branchPred.indirectLookups      1950923                       # Number of indirect predictor lookups.
system.switch_cpus.branchPred.indirectMisses       342400                       # Number of indirect misses.
system.switch_cpus.branchPred.lookups         4335354                       # Number of BP lookups
system.switch_cpus.branchPred.usedRAS             206                       # Number of times the RAS was used to get a target.
system.switch_cpus.branchPredindirectMispredicted        24403                       # Number of mispredicted indirect branches.
system.switch_cpus.cc_regfile_reads          12919826                       # number of cc regfile reads
system.switch_cpus.cc_regfile_writes          9421709                       # number of cc regfile writes
system.switch_cpus.commit.amos                      0                       # Number of atomic instructions committed
system.switch_cpus.commit.branchMispredicts       173853                       # The number of times a branch was mispredicted
system.switch_cpus.commit.branches            1904056                       # Number of branches committed
system.switch_cpus.commit.bw_lim_events        639848                       # number cycles where commit BW limit reached
system.switch_cpus.commit.commitSquashedInsts     15029582                       # The number of squashed insts skipped by commit
system.switch_cpus.commit.committedInsts     10000000                       # Number of instructions committed
system.switch_cpus.commit.committedOps       16204550                       # Number of ops (including micro ops) committed
system.switch_cpus.commit.committed_per_cycle::samples    122232868                       # Number of insts commited each cycle
system.switch_cpus.commit.committed_per_cycle::mean     0.132571                       # Number of insts commited each cycle
system.switch_cpus.commit.committed_per_cycle::stdev     0.761375                       # Number of insts commited each cycle
system.switch_cpus.commit.committed_per_cycle::underflows            0      0.00%      0.00% # Number of insts commited each cycle
system.switch_cpus.commit.committed_per_cycle::0    116183330     95.05%     95.05% # Number of insts commited each cycle
system.switch_cpus.commit.committed_per_cycle::1      2579342      2.11%     97.16% # Number of insts commited each cycle
system.switch_cpus.commit.committed_per_cycle::2      1223899      1.00%     98.16% # Number of insts commited each cycle
system.switch_cpus.commit.committed_per_cycle::3       833974      0.68%     98.84% # Number of insts commited each cycle
system.switch_cpus.commit.committed_per_cycle::4       513809      0.42%     99.26% # Number of insts commited each cycle
system.switch_cpus.commit.committed_per_cycle::5        99327      0.08%     99.35% # Number of insts commited each cycle
system.switch_cpus.commit.committed_per_cycle::6       110540      0.09%     99.44% # Number of insts commited each cycle
system.switch_cpus.commit.committed_per_cycle::7        48799      0.04%     99.48% # Number of insts commited each cycle
system.switch_cpus.commit.committed_per_cycle::8       639848      0.52%    100.00% # Number of insts commited each cycle
system.switch_cpus.commit.committed_per_cycle::overflows            0      0.00%    100.00% # Number of insts commited each cycle
system.switch_cpus.commit.committed_per_cycle::min_value            0                       # Number of insts commited each cycle
system.switch_cpus.commit.committed_per_cycle::max_value            8                       # Number of insts commited each cycle
system.switch_cpus.commit.committed_per_cycle::total    122232868                       # Number of insts commited each cycle
system.switch_cpus.commit.fp_insts                  0                       # Number of committed floating point instructions.
system.switch_cpus.commit.function_calls            0                       # Number of function calls committed.
system.switch_cpus.commit.int_insts          16204186                       # Number of committed integer instructions.
system.switch_cpus.commit.loads               3567032                       # Number of loads committed
system.switch_cpus.commit.membars                   0                       # Number of memory barriers committed
system.switch_cpus.commit.op_class_0::No_OpClass            0      0.00%      0.00% # Class of committed instruction
system.switch_cpus.commit.op_class_0::IntAlu     11575705     71.43%     71.43% # Class of committed instruction
system.switch_cpus.commit.op_class_0::IntMult            0      0.00%     71.43% # Class of committed instruction
system.switch_cpus.commit.op_class_0::IntDiv            0      0.00%     71.43% # Class of committed instruction
system.switch_cpus.commit.op_class_0::FloatAdd            0      0.00%     71.43% # Class of committed instruction
system.switch_cpus.commit.op_class_0::FloatCmp            0      0.00%     71.43% # Class of committed instruction
system.switch_cpus.commit.op_class_0::FloatCvt            0      0.00%     71.43% # Class of committed instruction
system.switch_cpus.commit.op_class_0::FloatMult            0      0.00%     71.43% # Class of committed instruction
system.switch_cpus.commit.op_class_0::FloatMultAcc            0      0.00%     71.43% # Class of committed instruction
system.switch_cpus.commit.op_class_0::FloatDiv            0      0.00%     71.43% # Class of committed instruction
system.switch_cpus.commit.op_class_0::FloatMisc            0      0.00%     71.43% # Class of committed instruction
system.switch_cpus.commit.op_class_0::FloatSqrt            0      0.00%     71.43% # Class of committed instruction
system.switch_cpus.commit.op_class_0::SimdAdd            0      0.00%     71.43% # Class of committed instruction
system.switch_cpus.commit.op_class_0::SimdAddAcc            0      0.00%     71.43% # Class of committed instruction
system.switch_cpus.commit.op_class_0::SimdAlu            0      0.00%     71.43% # Class of committed instruction
system.switch_cpus.commit.op_class_0::SimdCmp            0      0.00%     71.43% # Class of committed instruction
system.switch_cpus.commit.op_class_0::SimdCvt            0      0.00%     71.43% # Class of committed instruction
system.switch_cpus.commit.op_class_0::SimdMisc            0      0.00%     71.43% # Class of committed instruction
system.switch_cpus.commit.op_class_0::SimdMult            0      0.00%     71.43% # Class of committed instruction
system.switch_cpus.commit.op_class_0::SimdMultAcc            0      0.00%     71.43% # Class of committed instruction
system.switch_cpus.commit.op_class_0::SimdShift            0      0.00%     71.43% # Class of committed instruction
system.switch_cpus.commit.op_class_0::SimdShiftAcc            0      0.00%     71.43% # Class of committed instruction
system.switch_cpus.commit.op_class_0::SimdDiv            0      0.00%     71.43% # Class of committed instruction
system.switch_cpus.commit.op_class_0::SimdSqrt            0      0.00%     71.43% # Class of committed instruction
system.switch_cpus.commit.op_class_0::SimdFloatAdd            0      0.00%     71.43% # Class of committed instruction
system.switch_cpus.commit.op_class_0::SimdFloatAlu            0      0.00%     71.43% # Class of committed instruction
system.switch_cpus.commit.op_class_0::SimdFloatCmp            0      0.00%     71.43% # Class of committed instruction
system.switch_cpus.commit.op_class_0::SimdFloatCvt            0      0.00%     71.43% # Class of committed instruction
system.switch_cpus.commit.op_class_0::SimdFloatDiv            0      0.00%     71.43% # Class of committed instruction
system.switch_cpus.commit.op_class_0::SimdFloatMisc            0      0.00%     71.43% # Class of committed instruction
system.switch_cpus.commit.op_class_0::SimdFloatMult            0      0.00%     71.43% # Class of committed instruction
system.switch_cpus.commit.op_class_0::SimdFloatMultAcc            0      0.00%     71.43% # Class of committed instruction
system.switch_cpus.commit.op_class_0::SimdFloatSqrt            0      0.00%     71.43% # Class of committed instruction
system.switch_cpus.commit.op_class_0::SimdReduceAdd            0      0.00%     71.43% # Class of committed instruction
system.switch_cpus.commit.op_class_0::SimdReduceAlu            0      0.00%     71.43% # Class of committed instruction
system.switch_cpus.commit.op_class_0::SimdReduceCmp            0      0.00%     71.43% # Class of committed instruction
system.switch_cpus.commit.op_class_0::SimdFloatReduceAdd            0      0.00%     71.43% # Class of committed instruction
system.switch_cpus.commit.op_class_0::SimdFloatReduceCmp            0      0.00%     71.43% # Class of committed instruction
system.switch_cpus.commit.op_class_0::SimdAes            0      0.00%     71.43% # Class of committed instruction
system.switch_cpus.commit.op_class_0::SimdAesMix            0      0.00%     71.43% # Class of committed instruction
system.switch_cpus.commit.op_class_0::SimdSha1Hash            0      0.00%     71.43% # Class of committed instruction
system.switch_cpus.commit.op_class_0::SimdSha1Hash2            0      0.00%     71.43% # Class of committed instruction
system.switch_cpus.commit.op_class_0::SimdSha256Hash            0      0.00%     71.43% # Class of committed instruction
system.switch_cpus.commit.op_class_0::SimdSha256Hash2            0      0.00%     71.43% # Class of committed instruction
system.switch_cpus.commit.op_class_0::SimdShaSigma2            0      0.00%     71.43% # Class of committed instruction
system.switch_cpus.commit.op_class_0::SimdShaSigma3            0      0.00%     71.43% # Class of committed instruction
system.switch_cpus.commit.op_class_0::SimdPredAlu            0      0.00%     71.43% # Class of committed instruction
system.switch_cpus.commit.op_class_0::MemRead      3567032     22.01%     93.45% # Class of committed instruction
system.switch_cpus.commit.op_class_0::MemWrite      1061813      6.55%    100.00% # Class of committed instruction
system.switch_cpus.commit.op_class_0::FloatMemRead            0      0.00%    100.00% # Class of committed instruction
system.switch_cpus.commit.op_class_0::FloatMemWrite            0      0.00%    100.00% # Class of committed instruction
system.switch_cpus.commit.op_class_0::IprAccess            0      0.00%    100.00% # Class of committed instruction
system.switch_cpus.commit.op_class_0::InstPrefetch            0      0.00%    100.00% # Class of committed instruction
system.switch_cpus.commit.op_class_0::total     16204550                       # Class of committed instruction
system.switch_cpus.commit.refs                4628845                       # Number of memory references committed
system.switch_cpus.commit.swp_count                 0                       # Number of s/w prefetches committed
system.switch_cpus.commit.vec_insts                 0                       # Number of committed Vector instructions.
system.switch_cpus.committedInsts            10000000                       # Number of Instructions Simulated
system.switch_cpus.committedOps              16204550                       # Number of Ops (including micro ops) Simulated
system.switch_cpus.cpi                      12.430295                       # CPI: Cycles Per Instruction
system.switch_cpus.cpi_total                12.430295                       # CPI: Total CPI of All Threads
system.switch_cpus.decode.BlockedCycles     118129882                       # Number of cycles decode is blocked
system.switch_cpus.decode.DecodedInsts       32799374                       # Number of instructions handled by decode
system.switch_cpus.decode.IdleCycles          1605992                       # Number of cycles decode is idle
system.switch_cpus.decode.RunCycles           2668344                       # Number of cycles decode is running
system.switch_cpus.decode.SquashCycles         174045                       # Number of cycles decode is squashing
system.switch_cpus.decode.UnblockCycles       1723463                       # Number of cycles decode is unblocking
system.switch_cpus.dtb.rdAccesses             4775593                       # TLB accesses on read requests
system.switch_cpus.dtb.rdMisses                 44485                       # TLB misses on read requests
system.switch_cpus.dtb.wrAccesses             1576989                       # TLB accesses on write requests
system.switch_cpus.dtb.wrMisses                  1619                       # TLB misses on write requests
system.switch_cpus.fetch.Branches             4335354                       # Number of branches that fetch encountered
system.switch_cpus.fetch.CacheLines           2954102                       # Number of cache lines fetched
system.switch_cpus.fetch.Cycles             121059576                       # Number of cycles fetch has run and was not squashing or blocked
system.switch_cpus.fetch.IcacheSquashes         18768                       # Number of outstanding Icache misses that were squashed
system.switch_cpus.fetch.Insts               23730316                       # Number of instructions fetch has processed
system.switch_cpus.fetch.MiscStallCycles            1                       # Number of cycles fetch has spent waiting on interrupts, or bad addresses, or out of MSHRs
system.switch_cpus.fetch.PendingTrapStallCycles         1372                       # Number of stall cycles due to pending traps
system.switch_cpus.fetch.SquashCycles          348090                       # Number of cycles fetch has spent squashing
system.switch_cpus.fetch.branchRate          0.034877                       # Number of branch fetches per cycle
system.switch_cpus.fetch.icacheStallCycles      3066741                       # Number of cycles fetch is stalled on an Icache miss
system.switch_cpus.fetch.predictedBranches      1608729                       # Number of branches that fetch has predicted taken
system.switch_cpus.fetch.rate                0.190907                       # Number of inst fetches per cycle
system.switch_cpus.fetch.rateDist::samples    124301735                       # Number of instructions fetched each cycle (Total)
system.switch_cpus.fetch.rateDist::mean      0.306075                       # Number of instructions fetched each cycle (Total)
system.switch_cpus.fetch.rateDist::stdev     1.421533                       # Number of instructions fetched each cycle (Total)
system.switch_cpus.fetch.rateDist::underflows            0      0.00%      0.00% # Number of instructions fetched each cycle (Total)
system.switch_cpus.fetch.rateDist::0        118080370     94.99%     94.99% # Number of instructions fetched each cycle (Total)
system.switch_cpus.fetch.rateDist::1           127673      0.10%     95.10% # Number of instructions fetched each cycle (Total)
system.switch_cpus.fetch.rateDist::2           607663      0.49%     95.59% # Number of instructions fetched each cycle (Total)
system.switch_cpus.fetch.rateDist::3           323755      0.26%     95.85% # Number of instructions fetched each cycle (Total)
system.switch_cpus.fetch.rateDist::4           487027      0.39%     96.24% # Number of instructions fetched each cycle (Total)
system.switch_cpus.fetch.rateDist::5           389908      0.31%     96.55% # Number of instructions fetched each cycle (Total)
system.switch_cpus.fetch.rateDist::6          1144782      0.92%     97.47% # Number of instructions fetched each cycle (Total)
system.switch_cpus.fetch.rateDist::7           159442      0.13%     97.60% # Number of instructions fetched each cycle (Total)
system.switch_cpus.fetch.rateDist::8          2981115      2.40%    100.00% # Number of instructions fetched each cycle (Total)
system.switch_cpus.fetch.rateDist::overflows            0      0.00%    100.00% # Number of instructions fetched each cycle (Total)
system.switch_cpus.fetch.rateDist::min_value            0                       # Number of instructions fetched each cycle (Total)
system.switch_cpus.fetch.rateDist::max_value            8                       # Number of instructions fetched each cycle (Total)
system.switch_cpus.fetch.rateDist::total    124301735                       # Number of instructions fetched each cycle (Total)
system.switch_cpus.fp_regfile_writes               56                       # number of floating regfile writes
system.switch_cpus.idleCycles                    1211                       # Total number of cycles that the CPU has spent unscheduled due to idling
system.switch_cpus.iew.branchMispredicts       186259                       # Number of branch mispredicts detected at execute
system.switch_cpus.iew.exec_branches          2349059                       # Number of branches executed
system.switch_cpus.iew.exec_nop                     0                       # number of nop insts executed
system.switch_cpus.iew.exec_rate             0.199908                       # Inst execution rate
system.switch_cpus.iew.exec_refs              7105202                       # number of memory reference insts executed
system.switch_cpus.iew.exec_stores            1576989                       # Number of stores executed
system.switch_cpus.iew.exec_swp                     0                       # number of swp insts executed
system.switch_cpus.iew.iewBlockCycles        86198605                       # Number of cycles IEW is blocking
system.switch_cpus.iew.iewDispLoadInsts       6758568                       # Number of dispatched load instructions
system.switch_cpus.iew.iewDispNonSpecInsts            0                       # Number of dispatched non-speculative instructions
system.switch_cpus.iew.iewDispSquashedInsts         4863                       # Number of squashed instructions skipped by dispatch
system.switch_cpus.iew.iewDispStoreInsts      2287728                       # Number of dispatched store instructions
system.switch_cpus.iew.iewDispatchedInsts     31222278                       # Number of instructions dispatched to IQ
system.switch_cpus.iew.iewExecLoadInsts       5528213                       # Number of load instructions executed
system.switch_cpus.iew.iewExecSquashedInsts       193350                       # Number of squashed instructions skipped in execute
system.switch_cpus.iew.iewExecutedInsts      24849178                       # Number of executed instructions
system.switch_cpus.iew.iewIQFullEvents         481563                       # Number of times the IQ has become full, causing a stall
system.switch_cpus.iew.iewIdleCycles                0                       # Number of cycles IEW is idle
system.switch_cpus.iew.iewLSQFullEvents       1272885                       # Number of times the LSQ has become full, causing a stall
system.switch_cpus.iew.iewSquashCycles         174045                       # Number of cycles IEW is squashing
system.switch_cpus.iew.iewUnblockCycles       2415499                       # Number of cycles IEW is unblocking
system.switch_cpus.iew.lsq.thread0.blockedLoads            0                       # Number of blocked loads due to partial load-store forwarding
system.switch_cpus.iew.lsq.thread0.cacheBlocked       327173                       # Number of times an access to memory failed due to the cache being blocked
system.switch_cpus.iew.lsq.thread0.forwLoads        38906                       # Number of loads that had data forwarded from stores
system.switch_cpus.iew.lsq.thread0.ignoredResponses           23                       # Number of memory responses ignored because the instruction is squashed
system.switch_cpus.iew.lsq.thread0.invAddrLoads            0                       # Number of loads ignored due to an invalid address
system.switch_cpus.iew.lsq.thread0.invAddrSwpfs            0                       # Number of software prefetches ignored due to an invalid address
system.switch_cpus.iew.lsq.thread0.memOrderViolation          254                       # Number of memory ordering violations
system.switch_cpus.iew.lsq.thread0.rescheduledLoads            0                       # Number of loads that were rescheduled
system.switch_cpus.iew.lsq.thread0.squashedLoads      3191513                       # Number of loads squashed
system.switch_cpus.iew.lsq.thread0.squashedStores      1225900                       # Number of stores squashed
system.switch_cpus.iew.memOrderViolationEvents          254                       # Number of memory order violations
system.switch_cpus.iew.predictedNotTakenIncorrect        90296                       # Number of branches that were predicted not taken incorrectly
system.switch_cpus.iew.predictedTakenIncorrect        95963                       # Number of branches that were predicted taken incorrectly
system.switch_cpus.iew.wb_consumers          28024725                       # num instructions consuming a value
system.switch_cpus.iew.wb_count              23768822                       # cumulative count of insts written-back
system.switch_cpus.iew.wb_fanout             0.629193                       # average fanout of values written-back
system.switch_cpus.iew.wb_producers          17632949                       # num instructions producing a value
system.switch_cpus.iew.wb_rate               0.191217                       # insts written-back per cycle
system.switch_cpus.iew.wb_sent               23780140                       # cumulative count of insts sent to commit
system.switch_cpus.int_regfile_reads         33969525                       # number of integer regfile reads
system.switch_cpus.int_regfile_writes        19839280                       # number of integer regfile writes
system.switch_cpus.ipc                       0.080449                       # IPC: Instructions Per Cycle
system.switch_cpus.ipc_total                 0.080449                       # IPC: Total IPC of All Threads
system.switch_cpus.iq.FU_type_0::No_OpClass        14784      0.06%      0.06% # Type of FU issued
system.switch_cpus.iq.FU_type_0::IntAlu      17829894     71.20%     71.26% # Type of FU issued
system.switch_cpus.iq.FU_type_0::IntMult         2228      0.01%     71.27% # Type of FU issued
system.switch_cpus.iq.FU_type_0::IntDiv             0      0.00%     71.27% # Type of FU issued
system.switch_cpus.iq.FU_type_0::FloatAdd            0      0.00%     71.27% # Type of FU issued
system.switch_cpus.iq.FU_type_0::FloatCmp            0      0.00%     71.27% # Type of FU issued
system.switch_cpus.iq.FU_type_0::FloatCvt            0      0.00%     71.27% # Type of FU issued
system.switch_cpus.iq.FU_type_0::FloatMult            0      0.00%     71.27% # Type of FU issued
system.switch_cpus.iq.FU_type_0::FloatMultAcc            0      0.00%     71.27% # Type of FU issued
system.switch_cpus.iq.FU_type_0::FloatDiv            0      0.00%     71.27% # Type of FU issued
system.switch_cpus.iq.FU_type_0::FloatMisc            0      0.00%     71.27% # Type of FU issued
system.switch_cpus.iq.FU_type_0::FloatSqrt            0      0.00%     71.27% # Type of FU issued
system.switch_cpus.iq.FU_type_0::SimdAdd            0      0.00%     71.27% # Type of FU issued
system.switch_cpus.iq.FU_type_0::SimdAddAcc            0      0.00%     71.27% # Type of FU issued
system.switch_cpus.iq.FU_type_0::SimdAlu            0      0.00%     71.27% # Type of FU issued
system.switch_cpus.iq.FU_type_0::SimdCmp            0      0.00%     71.27% # Type of FU issued
system.switch_cpus.iq.FU_type_0::SimdCvt            0      0.00%     71.27% # Type of FU issued
system.switch_cpus.iq.FU_type_0::SimdMisc            0      0.00%     71.27% # Type of FU issued
system.switch_cpus.iq.FU_type_0::SimdMult            0      0.00%     71.27% # Type of FU issued
system.switch_cpus.iq.FU_type_0::SimdMultAcc            0      0.00%     71.27% # Type of FU issued
system.switch_cpus.iq.FU_type_0::SimdShift            0      0.00%     71.27% # Type of FU issued
system.switch_cpus.iq.FU_type_0::SimdShiftAcc            0      0.00%     71.27% # Type of FU issued
system.switch_cpus.iq.FU_type_0::SimdDiv            0      0.00%     71.27% # Type of FU issued
system.switch_cpus.iq.FU_type_0::SimdSqrt            0      0.00%     71.27% # Type of FU issued
system.switch_cpus.iq.FU_type_0::SimdFloatAdd            0      0.00%     71.27% # Type of FU issued
system.switch_cpus.iq.FU_type_0::SimdFloatAlu            0      0.00%     71.27% # Type of FU issued
system.switch_cpus.iq.FU_type_0::SimdFloatCmp            0      0.00%     71.27% # Type of FU issued
system.switch_cpus.iq.FU_type_0::SimdFloatCvt            0      0.00%     71.27% # Type of FU issued
system.switch_cpus.iq.FU_type_0::SimdFloatDiv            0      0.00%     71.27% # Type of FU issued
system.switch_cpus.iq.FU_type_0::SimdFloatMisc            0      0.00%     71.27% # Type of FU issued
system.switch_cpus.iq.FU_type_0::SimdFloatMult            0      0.00%     71.27% # Type of FU issued
system.switch_cpus.iq.FU_type_0::SimdFloatMultAcc            0      0.00%     71.27% # Type of FU issued
system.switch_cpus.iq.FU_type_0::SimdFloatSqrt            0      0.00%     71.27% # Type of FU issued
system.switch_cpus.iq.FU_type_0::SimdReduceAdd            0      0.00%     71.27% # Type of FU issued
system.switch_cpus.iq.FU_type_0::SimdReduceAlu            0      0.00%     71.27% # Type of FU issued
system.switch_cpus.iq.FU_type_0::SimdReduceCmp            0      0.00%     71.27% # Type of FU issued
system.switch_cpus.iq.FU_type_0::SimdFloatReduceAdd            0      0.00%     71.27% # Type of FU issued
system.switch_cpus.iq.FU_type_0::SimdFloatReduceCmp            0      0.00%     71.27% # Type of FU issued
system.switch_cpus.iq.FU_type_0::SimdAes            0      0.00%     71.27% # Type of FU issued
system.switch_cpus.iq.FU_type_0::SimdAesMix            0      0.00%     71.27% # Type of FU issued
system.switch_cpus.iq.FU_type_0::SimdSha1Hash            0      0.00%     71.27% # Type of FU issued
system.switch_cpus.iq.FU_type_0::SimdSha1Hash2            0      0.00%     71.27% # Type of FU issued
system.switch_cpus.iq.FU_type_0::SimdSha256Hash            0      0.00%     71.27% # Type of FU issued
system.switch_cpus.iq.FU_type_0::SimdSha256Hash2            0      0.00%     71.27% # Type of FU issued
system.switch_cpus.iq.FU_type_0::SimdShaSigma2            0      0.00%     71.27% # Type of FU issued
system.switch_cpus.iq.FU_type_0::SimdShaSigma3            0      0.00%     71.27% # Type of FU issued
system.switch_cpus.iq.FU_type_0::SimdPredAlu            0      0.00%     71.27% # Type of FU issued
system.switch_cpus.iq.FU_type_0::MemRead      5555683     22.18%     93.45% # Type of FU issued
system.switch_cpus.iq.FU_type_0::MemWrite      1639940      6.55%    100.00% # Type of FU issued
system.switch_cpus.iq.FU_type_0::FloatMemRead            0      0.00%    100.00% # Type of FU issued
system.switch_cpus.iq.FU_type_0::FloatMemWrite            0      0.00%    100.00% # Type of FU issued
system.switch_cpus.iq.FU_type_0::IprAccess            0      0.00%    100.00% # Type of FU issued
system.switch_cpus.iq.FU_type_0::InstPrefetch            0      0.00%    100.00% # Type of FU issued
system.switch_cpus.iq.FU_type_0::total       25042529                       # Type of FU issued
system.switch_cpus.iq.fp_alu_accesses               0                       # Number of floating point alu accesses
system.switch_cpus.iq.fp_inst_queue_reads            0                       # Number of floating instruction queue reads
system.switch_cpus.iq.fp_inst_queue_wakeup_accesses            0                       # Number of floating instruction queue wakeup accesses
system.switch_cpus.iq.fp_inst_queue_writes            0                       # Number of floating instruction queue writes
system.switch_cpus.iq.fu_busy_cnt              292463                       # FU busy when requested
system.switch_cpus.iq.fu_busy_rate           0.011679                       # FU busy rate (busy events/executed inst)
system.switch_cpus.iq.fu_full::No_OpClass            0      0.00%      0.00% # attempts to use FU when none available
system.switch_cpus.iq.fu_full::IntAlu           66182     22.63%     22.63% # attempts to use FU when none available
system.switch_cpus.iq.fu_full::IntMult              0      0.00%     22.63% # attempts to use FU when none available
system.switch_cpus.iq.fu_full::IntDiv               0      0.00%     22.63% # attempts to use FU when none available
system.switch_cpus.iq.fu_full::FloatAdd             0      0.00%     22.63% # attempts to use FU when none available
system.switch_cpus.iq.fu_full::FloatCmp             0      0.00%     22.63% # attempts to use FU when none available
system.switch_cpus.iq.fu_full::FloatCvt             0      0.00%     22.63% # attempts to use FU when none available
system.switch_cpus.iq.fu_full::FloatMult            0      0.00%     22.63% # attempts to use FU when none available
system.switch_cpus.iq.fu_full::FloatMultAcc            0      0.00%     22.63% # attempts to use FU when none available
system.switch_cpus.iq.fu_full::FloatDiv             0      0.00%     22.63% # attempts to use FU when none available
system.switch_cpus.iq.fu_full::FloatMisc            0      0.00%     22.63% # attempts to use FU when none available
system.switch_cpus.iq.fu_full::FloatSqrt            0      0.00%     22.63% # attempts to use FU when none available
system.switch_cpus.iq.fu_full::SimdAdd              0      0.00%     22.63% # attempts to use FU when none available
system.switch_cpus.iq.fu_full::SimdAddAcc            0      0.00%     22.63% # attempts to use FU when none available
system.switch_cpus.iq.fu_full::SimdAlu              0      0.00%     22.63% # attempts to use FU when none available
system.switch_cpus.iq.fu_full::SimdCmp              0      0.00%     22.63% # attempts to use FU when none available
system.switch_cpus.iq.fu_full::SimdCvt              0      0.00%     22.63% # attempts to use FU when none available
system.switch_cpus.iq.fu_full::SimdMisc             0      0.00%     22.63% # attempts to use FU when none available
system.switch_cpus.iq.fu_full::SimdMult             0      0.00%     22.63% # attempts to use FU when none available
system.switch_cpus.iq.fu_full::SimdMultAcc            0      0.00%     22.63% # attempts to use FU when none available
system.switch_cpus.iq.fu_full::SimdShift            0      0.00%     22.63% # attempts to use FU when none available
system.switch_cpus.iq.fu_full::SimdShiftAcc            0      0.00%     22.63% # attempts to use FU when none available
system.switch_cpus.iq.fu_full::SimdDiv              0      0.00%     22.63% # attempts to use FU when none available
system.switch_cpus.iq.fu_full::SimdSqrt             0      0.00%     22.63% # attempts to use FU when none available
system.switch_cpus.iq.fu_full::SimdFloatAdd            0      0.00%     22.63% # attempts to use FU when none available
system.switch_cpus.iq.fu_full::SimdFloatAlu            0      0.00%     22.63% # attempts to use FU when none available
system.switch_cpus.iq.fu_full::SimdFloatCmp            0      0.00%     22.63% # attempts to use FU when none available
system.switch_cpus.iq.fu_full::SimdFloatCvt            0      0.00%     22.63% # attempts to use FU when none available
system.switch_cpus.iq.fu_full::SimdFloatDiv            0      0.00%     22.63% # attempts to use FU when none available
system.switch_cpus.iq.fu_full::SimdFloatMisc            0      0.00%     22.63% # attempts to use FU when none available
system.switch_cpus.iq.fu_full::SimdFloatMult            0      0.00%     22.63% # attempts to use FU when none available
system.switch_cpus.iq.fu_full::SimdFloatMultAcc            0      0.00%     22.63% # attempts to use FU when none available
system.switch_cpus.iq.fu_full::SimdFloatSqrt            0      0.00%     22.63% # attempts to use FU when none available
system.switch_cpus.iq.fu_full::SimdReduceAdd            0      0.00%     22.63% # attempts to use FU when none available
system.switch_cpus.iq.fu_full::SimdReduceAlu            0      0.00%     22.63% # attempts to use FU when none available
system.switch_cpus.iq.fu_full::SimdReduceCmp            0      0.00%     22.63% # attempts to use FU when none available
system.switch_cpus.iq.fu_full::SimdFloatReduceAdd            0      0.00%     22.63% # attempts to use FU when none available
system.switch_cpus.iq.fu_full::SimdFloatReduceCmp            0      0.00%     22.63% # attempts to use FU when none available
system.switch_cpus.iq.fu_full::SimdAes              0      0.00%     22.63% # attempts to use FU when none available
system.switch_cpus.iq.fu_full::SimdAesMix            0      0.00%     22.63% # attempts to use FU when none available
system.switch_cpus.iq.fu_full::SimdSha1Hash            0      0.00%     22.63% # attempts to use FU when none available
system.switch_cpus.iq.fu_full::SimdSha1Hash2            0      0.00%     22.63% # attempts to use FU when none available
system.switch_cpus.iq.fu_full::SimdSha256Hash            0      0.00%     22.63% # attempts to use FU when none available
system.switch_cpus.iq.fu_full::SimdSha256Hash2            0      0.00%     22.63% # attempts to use FU when none available
system.switch_cpus.iq.fu_full::SimdShaSigma2            0      0.00%     22.63% # attempts to use FU when none available
system.switch_cpus.iq.fu_full::SimdShaSigma3            0      0.00%     22.63% # attempts to use FU when none available
system.switch_cpus.iq.fu_full::SimdPredAlu            0      0.00%     22.63% # attempts to use FU when none available
system.switch_cpus.iq.fu_full::MemRead          90308     30.88%     53.51% # attempts to use FU when none available
system.switch_cpus.iq.fu_full::MemWrite        135973     46.49%    100.00% # attempts to use FU when none available
system.switch_cpus.iq.fu_full::FloatMemRead            0      0.00%    100.00% # attempts to use FU when none available
system.switch_cpus.iq.fu_full::FloatMemWrite            0      0.00%    100.00% # attempts to use FU when none available
system.switch_cpus.iq.fu_full::IprAccess            0      0.00%    100.00% # attempts to use FU when none available
system.switch_cpus.iq.fu_full::InstPrefetch            0      0.00%    100.00% # attempts to use FU when none available
system.switch_cpus.iq.int_alu_accesses       25320208                       # Number of integer alu accesses
system.switch_cpus.iq.int_inst_queue_reads    174718048                       # Number of integer instruction queue reads
system.switch_cpus.iq.int_inst_queue_wakeup_accesses     23768822                       # Number of integer instruction queue wakeup accesses
system.switch_cpus.iq.int_inst_queue_writes     46240120                       # Number of integer instruction queue writes
system.switch_cpus.iq.iqInstsAdded           31222278                       # Number of instructions added to the IQ (excludes non-spec)
system.switch_cpus.iq.iqInstsIssued          25042529                       # Number of instructions issued
system.switch_cpus.iq.iqSquashedInstsExamined     15017594                       # Number of squashed instructions iterated over during squash; mainly for profiling
system.switch_cpus.iq.iqSquashedInstsIssued        38793                       # Number of squashed instructions issued
system.switch_cpus.iq.iqSquashedOperandsExamined     26272110                       # Number of squashed operands that are examined and possibly removed from graph
system.switch_cpus.iq.issued_per_cycle::samples    124301735                       # Number of insts issued each cycle
system.switch_cpus.iq.issued_per_cycle::mean     0.201466                       # Number of insts issued each cycle
system.switch_cpus.iq.issued_per_cycle::stdev     0.783890                       # Number of insts issued each cycle
system.switch_cpus.iq.issued_per_cycle::underflows            0      0.00%      0.00% # Number of insts issued each cycle
system.switch_cpus.iq.issued_per_cycle::0    112717654     90.68%     90.68% # Number of insts issued each cycle
system.switch_cpus.iq.issued_per_cycle::1      5544749      4.46%     95.14% # Number of insts issued each cycle
system.switch_cpus.iq.issued_per_cycle::2      2534127      2.04%     97.18% # Number of insts issued each cycle
system.switch_cpus.iq.issued_per_cycle::3      1582503      1.27%     98.45% # Number of insts issued each cycle
system.switch_cpus.iq.issued_per_cycle::4       882813      0.71%     99.16% # Number of insts issued each cycle
system.switch_cpus.iq.issued_per_cycle::5       452370      0.36%     99.53% # Number of insts issued each cycle
system.switch_cpus.iq.issued_per_cycle::6       317893      0.26%     99.78% # Number of insts issued each cycle
system.switch_cpus.iq.issued_per_cycle::7       175451      0.14%     99.92% # Number of insts issued each cycle
system.switch_cpus.iq.issued_per_cycle::8        94175      0.08%    100.00% # Number of insts issued each cycle
system.switch_cpus.iq.issued_per_cycle::overflows            0      0.00%    100.00% # Number of insts issued each cycle
system.switch_cpus.iq.issued_per_cycle::min_value            0                       # Number of insts issued each cycle
system.switch_cpus.iq.issued_per_cycle::max_value            8                       # Number of insts issued each cycle
system.switch_cpus.iq.issued_per_cycle::total    124301735                       # Number of insts issued each cycle
system.switch_cpus.iq.rate                   0.201464                       # Inst issue rate
system.switch_cpus.iq.vec_alu_accesses              0                       # Number of vector alu accesses
system.switch_cpus.iq.vec_inst_queue_reads            0                       # Number of vector instruction queue reads
system.switch_cpus.iq.vec_inst_queue_wakeup_accesses            0                       # Number of vector instruction queue wakeup accesses
system.switch_cpus.iq.vec_inst_queue_writes            0                       # Number of vector instruction queue writes
system.switch_cpus.itb.rdAccesses                   0                       # TLB accesses on read requests
system.switch_cpus.itb.rdMisses                     0                       # TLB misses on read requests
system.switch_cpus.itb.wrAccesses             2954309                       # TLB accesses on write requests
system.switch_cpus.itb.wrMisses                   209                       # TLB misses on write requests
system.switch_cpus.memDep0.conflictingLoads       415445                       # Number of conflicting loads.
system.switch_cpus.memDep0.conflictingStores       622972                       # Number of conflicting stores.
system.switch_cpus.memDep0.insertedLoads      6758568                       # Number of loads inserted to the mem dependence unit.
system.switch_cpus.memDep0.insertedStores      2287728                       # Number of stores inserted to the mem dependence unit.
system.switch_cpus.misc_regfile_reads        12998831                       # number of misc regfile reads
system.switch_cpus.misc_regfile_writes              1                       # number of misc regfile writes
system.switch_cpus.numCycles                124302946                       # number of cpu cycles simulated
system.switch_cpus.numWorkItemsCompleted            0                       # number of work items this cpu completed
system.switch_cpus.numWorkItemsStarted              0                       # number of work items this cpu started
system.switch_cpus.rename.BlockCycles       109613955                       # Number of cycles rename is blocking
system.switch_cpus.rename.CommittedMaps      20622243                       # Number of HB maps that are committed
system.switch_cpus.rename.IQFullEvents        5872473                       # Number of times rename has blocked due to IQ full
system.switch_cpus.rename.IdleCycles          2076305                       # Number of cycles rename is idle
system.switch_cpus.rename.LQFullEvents         951716                       # Number of times rename has blocked due to LQ full
system.switch_cpus.rename.ROBFullEvents        198690                       # Number of times rename has blocked due to ROB full
system.switch_cpus.rename.RenameLookups      84994407                       # Number of register rename lookups that rename has made
system.switch_cpus.rename.RenamedInsts       31970260                       # Number of instructions processed by rename
system.switch_cpus.rename.RenamedOperands     40379617                       # Number of destination operands rename has renamed
system.switch_cpus.rename.RunCycles           3510600                       # Number of cycles rename is running
system.switch_cpus.rename.SQFullEvents        2205159                       # Number of times rename has blocked due to SQ full
system.switch_cpus.rename.SquashCycles         174045                       # Number of cycles rename is squashing
system.switch_cpus.rename.UnblockCycles       8926821                       # Number of cycles rename is unblocking
system.switch_cpus.rename.UndoneMaps         19757198                       # Number of HB maps that are undone due to squashing
system.switch_cpus.rename.int_rename_lookups     48371970                       # Number of integer rename lookups
system.switch_cpus.rename.serializeStallCycles            0                       # count of cycles rename stalled for serializing inst
system.switch_cpus.rename.serializingInsts            0                       # count of serializing insts renamed
system.switch_cpus.rename.skidInsts          10962370                       # count of insts added to the skid buffer
system.switch_cpus.rename.tempSerializingInsts            0                       # count of temporary serializing insts renamed
system.switch_cpus.rob.rob_reads            152827152                       # The number of ROB reads
system.switch_cpus.rob.rob_writes            64540650                       # The number of ROB writes
system.switch_cpus.timesIdled                      21                       # Number of times that the entire CPU went into an idle state and unscheduled itself
system.tol2bus.snoop_filter.hit_multi_requests            0                       # Number of requests hitting in the snoop filter with multiple (>1) holders of the requested data.
system.tol2bus.snoop_filter.hit_multi_snoops            0                       # Number of snoops hitting in the snoop filter with multiple (>1) holders of the requested data.
system.tol2bus.snoop_filter.hit_single_requests      2091004                       # Number of requests hitting in the snoop filter with a single holder of the requested data.
system.tol2bus.snoop_filter.hit_single_snoops       142084                       # Number of snoops hitting in the snoop filter with a single holder of the requested data.
system.tol2bus.snoop_filter.tot_requests      4183052                       # Total number of requests made to the snoop filter.
system.tol2bus.snoop_filter.tot_snoops         142084                       # Total number of snoops made to the snoop filter.
system.membus.pwrStateResidencyTicks::UNDEFINED 92843246910000                       # Cumulative time (in ticks) in various power states
system.membus.trans_dist::ReadResp            1460570                       # Transaction distribution
system.membus.trans_dist::WritebackDirty       137468                       # Transaction distribution
system.membus.trans_dist::CleanEvict          1398110                       # Transaction distribution
system.membus.trans_dist::ReadExReq             79134                       # Transaction distribution
system.membus.trans_dist::ReadExResp            79134                       # Transaction distribution
system.membus.trans_dist::ReadSharedReq       1460570                       # Transaction distribution
system.membus.pkt_count_system.l2.mem_side::system.mem_ctrls.port      4614986                       # Packet count per connected master and slave (bytes)
system.membus.pkt_count_system.l2.mem_side::total      4614986                       # Packet count per connected master and slave (bytes)
system.membus.pkt_count::total                4614986                       # Packet count per connected master and slave (bytes)
system.membus.pkt_size_system.l2.mem_side::system.mem_ctrls.port    107339008                       # Cumulative packet size per connected master and slave (bytes)
system.membus.pkt_size_system.l2.mem_side::total    107339008                       # Cumulative packet size per connected master and slave (bytes)
system.membus.pkt_size::total               107339008                       # Cumulative packet size per connected master and slave (bytes)
system.membus.snoops                                0                       # Total snoops (count)
system.membus.snoopTraffic                          0                       # Total snoop traffic (bytes)
system.membus.snoop_fanout::samples           1539704                       # Request fanout histogram
system.membus.snoop_fanout::mean                    0                       # Request fanout histogram
system.membus.snoop_fanout::stdev                   0                       # Request fanout histogram
system.membus.snoop_fanout::underflows              0      0.00%      0.00% # Request fanout histogram
system.membus.snoop_fanout::0                 1539704    100.00%    100.00% # Request fanout histogram
system.membus.snoop_fanout::1                       0      0.00%    100.00% # Request fanout histogram
system.membus.snoop_fanout::overflows               0      0.00%    100.00% # Request fanout histogram
system.membus.snoop_fanout::min_value               0                       # Request fanout histogram
system.membus.snoop_fanout::max_value               0                       # Request fanout histogram
system.membus.snoop_fanout::total             1539704                       # Request fanout histogram
system.membus.reqLayer2.occupancy          4008479000                       # Layer occupancy (ticks)
system.membus.reqLayer2.utilization               6.4                       # Layer utilization (%)
system.membus.respLayer1.occupancy         8051362500                       # Layer occupancy (ticks)
system.membus.respLayer1.utilization             13.0                       # Layer utilization (%)
system.switch_cpus.pwrStateResidencyTicks::OFF  62151483750                       # Cumulative time (in ticks) in various power states
system.switch_cpus.dtb.walker.pwrStateResidencyTicks::UNDEFINED 92843246910000                       # Cumulative time (in ticks) in various power states
system.switch_cpus.itb.walker.pwrStateResidencyTicks::UNDEFINED 92843246910000                       # Cumulative time (in ticks) in various power states
system.tol2bus.pwrStateResidencyTicks::UNDEFINED 92843246910000                       # Cumulative time (in ticks) in various power states
system.tol2bus.trans_dist::ReadResp           2012293                       # Transaction distribution
system.tol2bus.trans_dist::WritebackDirty       278077                       # Transaction distribution
system.tol2bus.trans_dist::CleanEvict         3367864                       # Transaction distribution
system.tol2bus.trans_dist::ReadExReq            79753                       # Transaction distribution
system.tol2bus.trans_dist::ReadExResp           79753                       # Transaction distribution
system.tol2bus.trans_dist::ReadCleanReq            18                       # Transaction distribution
system.tol2bus.trans_dist::ReadSharedReq      2012277                       # Transaction distribution
system.tol2bus.pkt_count_system.cpu.icache.mem_side::system.l2.cpu_side           36                       # Packet count per connected master and slave (bytes)
system.tol2bus.pkt_count_system.cpu.dcache.mem_side::system.l2.cpu_side      6275062                       # Packet count per connected master and slave (bytes)
system.tol2bus.pkt_count::total               6275098                       # Packet count per connected master and slave (bytes)
system.tol2bus.pkt_size_system.cpu.icache.mem_side::system.l2.cpu_side         1152                       # Cumulative packet size per connected master and slave (bytes)
system.tol2bus.pkt_size_system.cpu.dcache.mem_side::system.l2.cpu_side    142888768                       # Cumulative packet size per connected master and slave (bytes)
system.tol2bus.pkt_size::total              142889920                       # Cumulative packet size per connected master and slave (bytes)
system.tol2bus.snoops                         1554937                       # Total snoops (count)
system.tol2bus.snoopTraffic                   8797952                       # Total snoop traffic (bytes)
system.tol2bus.snoop_fanout::samples          3646985                       # Request fanout histogram
system.tol2bus.snoop_fanout::mean            0.038959                       # Request fanout histogram
system.tol2bus.snoop_fanout::stdev           0.193498                       # Request fanout histogram
system.tol2bus.snoop_fanout::underflows             0      0.00%      0.00% # Request fanout histogram
system.tol2bus.snoop_fanout::0                3504901     96.10%     96.10% # Request fanout histogram
system.tol2bus.snoop_fanout::1                 142084      3.90%    100.00% # Request fanout histogram
system.tol2bus.snoop_fanout::2                      0      0.00%    100.00% # Request fanout histogram
system.tol2bus.snoop_fanout::3                      0      0.00%    100.00% # Request fanout histogram
system.tol2bus.snoop_fanout::4                      0      0.00%    100.00% # Request fanout histogram
system.tol2bus.snoop_fanout::overflows              0      0.00%    100.00% # Request fanout histogram
system.tol2bus.snoop_fanout::min_value              0                       # Request fanout histogram
system.tol2bus.snoop_fanout::max_value              1                       # Request fanout histogram
system.tol2bus.snoop_fanout::total            3646985                       # Request fanout histogram
system.tol2bus.reqLayer0.occupancy         2232133000                       # Layer occupancy (ticks)
system.tol2bus.reqLayer0.utilization              3.6                       # Layer utilization (%)
system.tol2bus.respLayer1.occupancy        3138037500                       # Layer occupancy (ticks)
system.tol2bus.respLayer1.utilization             5.0                       # Layer utilization (%)
system.tol2bus.respLayer0.occupancy             25500                       # Layer occupancy (ticks)
system.tol2bus.respLayer0.utilization             0.0                       # Layer utilization (%)
system.voltage_domain.voltage                       1                       # Voltage in Volts
system.clk_domain.clock                          1000                       # Clock period in ticks
system.l2.pwrStateResidencyTicks::UNDEFINED 92843246910000                       # Cumulative time (in ticks) in various power states
system.l2.demand_hits::.switch_cpus.data       552344                       # number of demand (read+write) hits
system.l2.demand_hits::total                   552344                       # number of demand (read+write) hits
system.l2.overall_hits::.switch_cpus.data       552344                       # number of overall hits
system.l2.overall_hits::total                  552344                       # number of overall hits
system.l2.demand_misses::.cpu.inst                  1                       # number of demand (read+write) misses
system.l2.demand_misses::.cpu.data                  3                       # number of demand (read+write) misses
system.l2.demand_misses::.switch_cpus.inst           17                       # number of demand (read+write) misses
system.l2.demand_misses::.switch_cpus.data      1539683                       # number of demand (read+write) misses
system.l2.demand_misses::total                1539704                       # number of demand (read+write) misses
system.l2.overall_misses::.cpu.inst                 1                       # number of overall misses
system.l2.overall_misses::.cpu.data                 3                       # number of overall misses
system.l2.overall_misses::.switch_cpus.inst           17                       # number of overall misses
system.l2.overall_misses::.switch_cpus.data      1539683                       # number of overall misses
system.l2.overall_misses::total               1539704                       # number of overall misses
system.l2.demand_miss_latency::.switch_cpus.inst      1515000                       # number of demand (read+write) miss cycles
system.l2.demand_miss_latency::.switch_cpus.data 124093188000                       # number of demand (read+write) miss cycles
system.l2.demand_miss_latency::total     124094703000                       # number of demand (read+write) miss cycles
system.l2.overall_miss_latency::.switch_cpus.inst      1515000                       # number of overall miss cycles
system.l2.overall_miss_latency::.switch_cpus.data 124093188000                       # number of overall miss cycles
system.l2.overall_miss_latency::total    124094703000                       # number of overall miss cycles
system.l2.demand_accesses::.cpu.inst                1                       # number of demand (read+write) accesses
system.l2.demand_accesses::.cpu.data                3                       # number of demand (read+write) accesses
system.l2.demand_accesses::.switch_cpus.inst           17                       # number of demand (read+write) accesses
system.l2.demand_accesses::.switch_cpus.data      2092027                       # number of demand (read+write) accesses
system.l2.demand_accesses::total              2092048                       # number of demand (read+write) accesses
system.l2.overall_accesses::.cpu.inst               1                       # number of overall (read+write) accesses
system.l2.overall_accesses::.cpu.data               3                       # number of overall (read+write) accesses
system.l2.overall_accesses::.switch_cpus.inst           17                       # number of overall (read+write) accesses
system.l2.overall_accesses::.switch_cpus.data      2092027                       # number of overall (read+write) accesses
system.l2.overall_accesses::total             2092048                       # number of overall (read+write) accesses
system.l2.demand_miss_rate::.cpu.inst               1                       # miss rate for demand accesses
system.l2.demand_miss_rate::.cpu.data               1                       # miss rate for demand accesses
system.l2.demand_miss_rate::.switch_cpus.inst            1                       # miss rate for demand accesses
system.l2.demand_miss_rate::.switch_cpus.data     0.735977                       # miss rate for demand accesses
system.l2.demand_miss_rate::total            0.735979                       # miss rate for demand accesses
system.l2.overall_miss_rate::.cpu.inst              1                       # miss rate for overall accesses
system.l2.overall_miss_rate::.cpu.data              1                       # miss rate for overall accesses
system.l2.overall_miss_rate::.switch_cpus.inst            1                       # miss rate for overall accesses
system.l2.overall_miss_rate::.switch_cpus.data     0.735977                       # miss rate for overall accesses
system.l2.overall_miss_rate::total           0.735979                       # miss rate for overall accesses
system.l2.demand_avg_miss_latency::.switch_cpus.inst 89117.647059                       # average overall miss latency
system.l2.demand_avg_miss_latency::.switch_cpus.data 80596.582543                       # average overall miss latency
system.l2.demand_avg_miss_latency::total 80596.467243                       # average overall miss latency
system.l2.overall_avg_miss_latency::.switch_cpus.inst 89117.647059                       # average overall miss latency
system.l2.overall_avg_miss_latency::.switch_cpus.data 80596.582543                       # average overall miss latency
system.l2.overall_avg_miss_latency::total 80596.467243                       # average overall miss latency
system.l2.blocked_cycles::no_mshrs                  0                       # number of cycles access was blocked
system.l2.blocked_cycles::no_targets                0                       # number of cycles access was blocked
system.l2.blocked::no_mshrs                         0                       # number of cycles access was blocked
system.l2.blocked::no_targets                       0                       # number of cycles access was blocked
system.l2.avg_blocked_cycles::no_mshrs            nan                       # average number of cycles each access was blocked
system.l2.avg_blocked_cycles::no_targets          nan                       # average number of cycles each access was blocked
system.l2.writebacks::.writebacks              137468                       # number of writebacks
system.l2.writebacks::total                    137468                       # number of writebacks
system.l2.demand_mshr_misses::.switch_cpus.inst           17                       # number of demand (read+write) MSHR misses
system.l2.demand_mshr_misses::.switch_cpus.data      1539683                       # number of demand (read+write) MSHR misses
system.l2.demand_mshr_misses::total           1539700                       # number of demand (read+write) MSHR misses
system.l2.overall_mshr_misses::.switch_cpus.inst           17                       # number of overall MSHR misses
system.l2.overall_mshr_misses::.switch_cpus.data      1539683                       # number of overall MSHR misses
system.l2.overall_mshr_misses::total          1539700                       # number of overall MSHR misses
system.l2.demand_mshr_miss_latency::.switch_cpus.inst      1345000                       # number of demand (read+write) MSHR miss cycles
system.l2.demand_mshr_miss_latency::.switch_cpus.data 108696358000                       # number of demand (read+write) MSHR miss cycles
system.l2.demand_mshr_miss_latency::total 108697703000                       # number of demand (read+write) MSHR miss cycles
system.l2.overall_mshr_miss_latency::.switch_cpus.inst      1345000                       # number of overall MSHR miss cycles
system.l2.overall_mshr_miss_latency::.switch_cpus.data 108696358000                       # number of overall MSHR miss cycles
system.l2.overall_mshr_miss_latency::total 108697703000                       # number of overall MSHR miss cycles
system.l2.demand_mshr_miss_rate::.switch_cpus.inst            1                       # mshr miss rate for demand accesses
system.l2.demand_mshr_miss_rate::.switch_cpus.data     0.735977                       # mshr miss rate for demand accesses
system.l2.demand_mshr_miss_rate::total       0.735977                       # mshr miss rate for demand accesses
system.l2.overall_mshr_miss_rate::.switch_cpus.inst            1                       # mshr miss rate for overall accesses
system.l2.overall_mshr_miss_rate::.switch_cpus.data     0.735977                       # mshr miss rate for overall accesses
system.l2.overall_mshr_miss_rate::total      0.735977                       # mshr miss rate for overall accesses
system.l2.demand_avg_mshr_miss_latency::.switch_cpus.inst 79117.647059                       # average overall mshr miss latency
system.l2.demand_avg_mshr_miss_latency::.switch_cpus.data 70596.582543                       # average overall mshr miss latency
system.l2.demand_avg_mshr_miss_latency::total 70596.676625                       # average overall mshr miss latency
system.l2.overall_avg_mshr_miss_latency::.switch_cpus.inst 79117.647059                       # average overall mshr miss latency
system.l2.overall_avg_mshr_miss_latency::.switch_cpus.data 70596.582543                       # average overall mshr miss latency
system.l2.overall_avg_mshr_miss_latency::total 70596.676625                       # average overall mshr miss latency
system.l2.replacements                        1554937                       # number of replacements
system.l2.WritebackDirty_hits::.writebacks       140609                       # number of WritebackDirty hits
system.l2.WritebackDirty_hits::total           140609                       # number of WritebackDirty hits
system.l2.WritebackDirty_accesses::.writebacks       140609                       # number of WritebackDirty accesses(hits+misses)
system.l2.WritebackDirty_accesses::total       140609                       # number of WritebackDirty accesses(hits+misses)
system.l2.CleanEvict_mshr_misses::.writebacks       122727                       # number of CleanEvict MSHR misses
system.l2.CleanEvict_mshr_misses::total        122727                       # number of CleanEvict MSHR misses
system.l2.CleanEvict_mshr_miss_rate::.writebacks          inf                       # mshr miss rate for CleanEvict accesses
system.l2.CleanEvict_mshr_miss_rate::total          inf                       # mshr miss rate for CleanEvict accesses
system.l2.ReadExReq_hits::.switch_cpus.data          619                       # number of ReadExReq hits
system.l2.ReadExReq_hits::total                   619                       # number of ReadExReq hits
system.l2.ReadExReq_misses::.switch_cpus.data        79134                       # number of ReadExReq misses
system.l2.ReadExReq_misses::total               79134                       # number of ReadExReq misses
system.l2.ReadExReq_miss_latency::.switch_cpus.data   6724799000                       # number of ReadExReq miss cycles
system.l2.ReadExReq_miss_latency::total    6724799000                       # number of ReadExReq miss cycles
system.l2.ReadExReq_accesses::.switch_cpus.data        79753                       # number of ReadExReq accesses(hits+misses)
system.l2.ReadExReq_accesses::total             79753                       # number of ReadExReq accesses(hits+misses)
system.l2.ReadExReq_miss_rate::.switch_cpus.data     0.992239                       # miss rate for ReadExReq accesses
system.l2.ReadExReq_miss_rate::total         0.992239                       # miss rate for ReadExReq accesses
system.l2.ReadExReq_avg_miss_latency::.switch_cpus.data 84979.894862                       # average ReadExReq miss latency
system.l2.ReadExReq_avg_miss_latency::total 84979.894862                       # average ReadExReq miss latency
system.l2.ReadExReq_mshr_misses::.switch_cpus.data        79134                       # number of ReadExReq MSHR misses
system.l2.ReadExReq_mshr_misses::total          79134                       # number of ReadExReq MSHR misses
system.l2.ReadExReq_mshr_miss_latency::.switch_cpus.data   5933459000                       # number of ReadExReq MSHR miss cycles
system.l2.ReadExReq_mshr_miss_latency::total   5933459000                       # number of ReadExReq MSHR miss cycles
system.l2.ReadExReq_mshr_miss_rate::.switch_cpus.data     0.992239                       # mshr miss rate for ReadExReq accesses
system.l2.ReadExReq_mshr_miss_rate::total     0.992239                       # mshr miss rate for ReadExReq accesses
system.l2.ReadExReq_avg_mshr_miss_latency::.switch_cpus.data 74979.894862                       # average ReadExReq mshr miss latency
system.l2.ReadExReq_avg_mshr_miss_latency::total 74979.894862                       # average ReadExReq mshr miss latency
system.l2.ReadCleanReq_misses::.cpu.inst            1                       # number of ReadCleanReq misses
system.l2.ReadCleanReq_misses::.switch_cpus.inst           17                       # number of ReadCleanReq misses
system.l2.ReadCleanReq_misses::total               18                       # number of ReadCleanReq misses
system.l2.ReadCleanReq_miss_latency::.switch_cpus.inst      1515000                       # number of ReadCleanReq miss cycles
system.l2.ReadCleanReq_miss_latency::total      1515000                       # number of ReadCleanReq miss cycles
system.l2.ReadCleanReq_accesses::.cpu.inst            1                       # number of ReadCleanReq accesses(hits+misses)
system.l2.ReadCleanReq_accesses::.switch_cpus.inst           17                       # number of ReadCleanReq accesses(hits+misses)
system.l2.ReadCleanReq_accesses::total             18                       # number of ReadCleanReq accesses(hits+misses)
system.l2.ReadCleanReq_miss_rate::.cpu.inst            1                       # miss rate for ReadCleanReq accesses
system.l2.ReadCleanReq_miss_rate::.switch_cpus.inst            1                       # miss rate for ReadCleanReq accesses
system.l2.ReadCleanReq_miss_rate::total             1                       # miss rate for ReadCleanReq accesses
system.l2.ReadCleanReq_avg_miss_latency::.switch_cpus.inst 89117.647059                       # average ReadCleanReq miss latency
system.l2.ReadCleanReq_avg_miss_latency::total 84166.666667                       # average ReadCleanReq miss latency
system.l2.ReadCleanReq_mshr_misses::.switch_cpus.inst           17                       # number of ReadCleanReq MSHR misses
system.l2.ReadCleanReq_mshr_misses::total           17                       # number of ReadCleanReq MSHR misses
system.l2.ReadCleanReq_mshr_miss_latency::.switch_cpus.inst      1345000                       # number of ReadCleanReq MSHR miss cycles
system.l2.ReadCleanReq_mshr_miss_latency::total      1345000                       # number of ReadCleanReq MSHR miss cycles
system.l2.ReadCleanReq_mshr_miss_rate::.switch_cpus.inst            1                       # mshr miss rate for ReadCleanReq accesses
system.l2.ReadCleanReq_mshr_miss_rate::total     0.944444                       # mshr miss rate for ReadCleanReq accesses
system.l2.ReadCleanReq_avg_mshr_miss_latency::.switch_cpus.inst 79117.647059                       # average ReadCleanReq mshr miss latency
system.l2.ReadCleanReq_avg_mshr_miss_latency::total 79117.647059                       # average ReadCleanReq mshr miss latency
system.l2.ReadSharedReq_hits::.switch_cpus.data       551725                       # number of ReadSharedReq hits
system.l2.ReadSharedReq_hits::total            551725                       # number of ReadSharedReq hits
system.l2.ReadSharedReq_misses::.cpu.data            3                       # number of ReadSharedReq misses
[...]
system.cpu.icache.tags.data_accesses         22215809                       # Number of data accesses
system.cpu.dtb.walker.pwrStateResidencyTicks::UNDEFINED 93044844873000                       # Cumulative time (in ticks) in various power states
system.cpu.interrupts.clk_domain.clock           8000                       # Clock period in ticks
system.cpu.itb_walker_cache.pwrStateResidencyTicks::UNDEFINED 93044844873000                       # Cumulative time (in ticks) in various power states
system.cpu.itb_walker_cache.blocked_cycles::no_mshrs            0                       # number of cycles access was blocked
system.cpu.itb_walker_cache.blocked_cycles::no_targets            0                       # number of cycles access was blocked
system.cpu.itb_walker_cache.blocked::no_mshrs            0                       # number of cycles access was blocked
system.cpu.itb_walker_cache.blocked::no_targets            0                       # number of cycles access was blocked
system.cpu.itb_walker_cache.avg_blocked_cycles::no_mshrs          nan                       # average number of cycles each access was blocked
system.cpu.itb_walker_cache.avg_blocked_cycles::no_targets          nan                       # average number of cycles each access was blocked
system.cpu.itb_walker_cache.replacements            0                       # number of replacements
system.cpu.itb_walker_cache.tags.pwrStateResidencyTicks::UNDEFINED 93044844873000                       # Cumulative time (in ticks) in various power states
system.cpu.itb_walker_cache.tags.tagsinuse            0                       # Cycle average of tags in use
system.cpu.itb_walker_cache.tags.total_refs            0                       # Total number of references to valid blocks.
system.cpu.itb_walker_cache.tags.sampled_refs            0                       # Sample count of references to valid blocks.
system.cpu.itb_walker_cache.tags.avg_refs          nan                       # Average number of references to valid blocks.
system.cpu.itb_walker_cache.tags.warmup_cycle            0                       # Cycle when the warmup percentage was hit.
system.cpu.itb_walker_cache.tags.tag_accesses            0                       # Number of tag accesses
system.cpu.itb_walker_cache.tags.data_accesses            0                       # Number of data accesses
system.cpu.itb.walker.pwrStateResidencyTicks::UNDEFINED 93044844873000                       # Cumulative time (in ticks) in various power states
system.cpu.dtb_walker_cache.pwrStateResidencyTicks::UNDEFINED 93044844873000                       # Cumulative time (in ticks) in various power states
system.cpu.dtb_walker_cache.blocked_cycles::no_mshrs            0                       # number of cycles access was blocked
system.cpu.dtb_walker_cache.blocked_cycles::no_targets            0                       # number of cycles access was blocked
system.cpu.dtb_walker_cache.blocked::no_mshrs            0                       # number of cycles access was blocked
system.cpu.dtb_walker_cache.blocked::no_targets            0                       # number of cycles access was blocked
system.cpu.dtb_walker_cache.avg_blocked_cycles::no_mshrs          nan                       # average number of cycles each access was blocked
system.cpu.dtb_walker_cache.avg_blocked_cycles::no_targets          nan                       # average number of cycles each access was blocked
system.cpu.dtb_walker_cache.replacements            0                       # number of replacements
system.cpu.dtb_walker_cache.tags.pwrStateResidencyTicks::UNDEFINED 93044844873000                       # Cumulative time (in ticks) in various power states
system.cpu.dtb_walker_cache.tags.tagsinuse            0                       # Cycle average of tags in use
system.cpu.dtb_walker_cache.tags.total_refs            0                       # Total number of references to valid blocks.
system.cpu.dtb_walker_cache.tags.sampled_refs            0                       # Sample count of references to valid blocks.
system.cpu.dtb_walker_cache.tags.avg_refs          nan                       # Average number of references to valid blocks.
system.cpu.dtb_walker_cache.tags.warmup_cycle            0                       # Cycle when the warmup percentage was hit.
system.cpu.dtb_walker_cache.tags.tag_accesses            0                       # Number of tag accesses
system.cpu.dtb_walker_cache.tags.data_accesses            0                       # Number of data accesses
system.cpu.dcache.pwrStateResidencyTicks::UNDEFINED 93044844873000                       # Cumulative time (in ticks) in various power states
system.cpu.dcache.demand_hits::.cpu.data            1                       # number of demand (read+write) hits
system.cpu.dcache.demand_hits::.switch_cpus.data     13338520                       # number of demand (read+write) hits
system.cpu.dcache.demand_hits::total         13338521                       # number of demand (read+write) hits
system.cpu.dcache.overall_hits::.cpu.data            1                       # number of overall hits
system.cpu.dcache.overall_hits::.switch_cpus.data     13338520                       # number of overall hits
system.cpu.dcache.overall_hits::total        13338521                       # number of overall hits
system.cpu.dcache.demand_misses::.cpu.data            3                       # number of demand (read+write) misses
system.cpu.dcache.demand_misses::.switch_cpus.data      8907757                       # number of demand (read+write) misses
system.cpu.dcache.demand_misses::total        8907760                       # number of demand (read+write) misses
system.cpu.dcache.overall_misses::.cpu.data            3                       # number of overall misses
system.cpu.dcache.overall_misses::.switch_cpus.data      8907757                       # number of overall misses
system.cpu.dcache.overall_misses::total       8907760                       # number of overall misses
system.cpu.dcache.demand_miss_latency::.switch_cpus.data 671289332789                       # number of demand (read+write) miss cycles
system.cpu.dcache.demand_miss_latency::total 671289332789                       # number of demand (read+write) miss cycles
system.cpu.dcache.overall_miss_latency::.switch_cpus.data 671289332789                       # number of overall miss cycles
system.cpu.dcache.overall_miss_latency::total 671289332789                       # number of overall miss cycles
system.cpu.dcache.demand_accesses::.cpu.data            4                       # number of demand (read+write) accesses
system.cpu.dcache.demand_accesses::.switch_cpus.data     22246277                       # number of demand (read+write) accesses
system.cpu.dcache.demand_accesses::total     22246281                       # number of demand (read+write) accesses
system.cpu.dcache.overall_accesses::.cpu.data            4                       # number of overall (read+write) accesses
system.cpu.dcache.overall_accesses::.switch_cpus.data     22246277                       # number of overall (read+write) accesses
system.cpu.dcache.overall_accesses::total     22246281                       # number of overall (read+write) accesses
system.cpu.dcache.demand_miss_rate::.cpu.data     0.750000                       # miss rate for demand accesses
system.cpu.dcache.demand_miss_rate::.switch_cpus.data     0.400416                       # miss rate for demand accesses
system.cpu.dcache.demand_miss_rate::total     0.400416                       # miss rate for demand accesses
system.cpu.dcache.overall_miss_rate::.cpu.data     0.750000                       # miss rate for overall accesses
system.cpu.dcache.overall_miss_rate::.switch_cpus.data     0.400416                       # miss rate for overall accesses
system.cpu.dcache.overall_miss_rate::total     0.400416                       # miss rate for overall accesses
system.cpu.dcache.demand_avg_miss_latency::.switch_cpus.data 75360.085910                       # average overall miss latency
system.cpu.dcache.demand_avg_miss_latency::total 75360.060530                       # average overall miss latency
system.cpu.dcache.overall_avg_miss_latency::.switch_cpus.data 75360.085910                       # average overall miss latency
system.cpu.dcache.overall_avg_miss_latency::total 75360.060530                       # average overall miss latency
system.cpu.dcache.blocked_cycles::no_mshrs     44809153                       # number of cycles access was blocked
system.cpu.dcache.blocked_cycles::no_targets            0                       # number of cycles access was blocked
system.cpu.dcache.blocked::no_mshrs           1537831                       # number of cycles access was blocked
system.cpu.dcache.blocked::no_targets               0                       # number of cycles access was blocked
system.cpu.dcache.avg_blocked_cycles::no_mshrs    29.137892                       # average number of cycles each access was blocked
system.cpu.dcache.avg_blocked_cycles::no_targets          nan                       # average number of cycles each access was blocked
system.cpu.dcache.writebacks::.writebacks       550905                       # number of writebacks
system.cpu.dcache.writebacks::total            550905                       # number of writebacks
system.cpu.dcache.demand_mshr_hits::.switch_cpus.data      1109783                       # number of demand (read+write) MSHR hits
system.cpu.dcache.demand_mshr_hits::total      1109783                       # number of demand (read+write) MSHR hits
system.cpu.dcache.overall_mshr_hits::.switch_cpus.data      1109783                       # number of overall MSHR hits
system.cpu.dcache.overall_mshr_hits::total      1109783                       # number of overall MSHR hits
system.cpu.dcache.demand_mshr_misses::.switch_cpus.data      7797974                       # number of demand (read+write) MSHR misses
system.cpu.dcache.demand_mshr_misses::total      7797974                       # number of demand (read+write) MSHR misses
system.cpu.dcache.overall_mshr_misses::.switch_cpus.data      7797974                       # number of overall MSHR misses
system.cpu.dcache.overall_mshr_misses::total      7797974                       # number of overall MSHR misses
system.cpu.dcache.demand_mshr_miss_latency::.switch_cpus.data 597190411290                       # number of demand (read+write) MSHR miss cycles
system.cpu.dcache.demand_mshr_miss_latency::total 597190411290                       # number of demand (read+write) MSHR miss cycles
system.cpu.dcache.overall_mshr_miss_latency::.switch_cpus.data 597190411290                       # number of overall MSHR miss cycles
system.cpu.dcache.overall_mshr_miss_latency::total 597190411290                       # number of overall MSHR miss cycles
system.cpu.dcache.demand_mshr_miss_rate::.switch_cpus.data     0.350529                       # mshr miss rate for demand accesses
system.cpu.dcache.demand_mshr_miss_rate::total     0.350529                       # mshr miss rate for demand accesses
system.cpu.dcache.overall_mshr_miss_rate::.switch_cpus.data     0.350529                       # mshr miss rate for overall accesses
system.cpu.dcache.overall_mshr_miss_rate::total     0.350529                       # mshr miss rate for overall accesses
system.cpu.dcache.demand_avg_mshr_miss_latency::.switch_cpus.data 76582.765125                       # average overall mshr miss latency
system.cpu.dcache.demand_avg_mshr_miss_latency::total 76582.765125                       # average overall mshr miss latency
system.cpu.dcache.overall_avg_mshr_miss_latency::.switch_cpus.data 76582.765125                       # average overall mshr miss latency
system.cpu.dcache.overall_avg_mshr_miss_latency::total 76582.765125                       # average overall mshr miss latency
system.cpu.dcache.replacements                7796950                       # number of replacements
system.cpu.dcache.ReadReq_hits::.cpu.data            1                       # number of ReadReq hits
system.cpu.dcache.ReadReq_hits::.switch_cpus.data      9025536                       # number of ReadReq hits
system.cpu.dcache.ReadReq_hits::total         9025537                       # number of ReadReq hits
system.cpu.dcache.ReadReq_misses::.cpu.data            3                       # number of ReadReq misses
system.cpu.dcache.ReadReq_misses::.switch_cpus.data      8607963                       # number of ReadReq misses
system.cpu.dcache.ReadReq_misses::total       8607966                       # number of ReadReq misses
system.cpu.dcache.ReadReq_miss_latency::.switch_cpus.data 644975642500                       # number of ReadReq miss cycles
system.cpu.dcache.ReadReq_miss_latency::total 644975642500                       # number of ReadReq miss cycles
system.cpu.dcache.ReadReq_accesses::.cpu.data            4                       # number of ReadReq accesses(hits+misses)
system.cpu.dcache.ReadReq_accesses::.switch_cpus.data     17633499                       # number of ReadReq accesses(hits+misses)
system.cpu.dcache.ReadReq_accesses::total     17633503                       # number of ReadReq accesses(hits+misses)
system.cpu.dcache.ReadReq_miss_rate::.cpu.data     0.750000                       # miss rate for ReadReq accesses
system.cpu.dcache.ReadReq_miss_rate::.switch_cpus.data     0.488160                       # miss rate for ReadReq accesses
system.cpu.dcache.ReadReq_miss_rate::total     0.488160                       # miss rate for ReadReq accesses
system.cpu.dcache.ReadReq_avg_miss_latency::.switch_cpus.data 74927.789827                       # average ReadReq miss latency
system.cpu.dcache.ReadReq_avg_miss_latency::total 74927.763713                       # average ReadReq miss latency
system.cpu.dcache.ReadReq_mshr_hits::.switch_cpus.data      1109774                       # number of ReadReq MSHR hits
system.cpu.dcache.ReadReq_mshr_hits::total      1109774                       # number of ReadReq MSHR hits
system.cpu.dcache.ReadReq_mshr_misses::.switch_cpus.data      7498189                       # number of ReadReq MSHR misses
system.cpu.dcache.ReadReq_mshr_misses::total      7498189                       # number of ReadReq MSHR misses
system.cpu.dcache.ReadReq_mshr_miss_latency::.switch_cpus.data 571176731500                       # number of ReadReq MSHR miss cycles
system.cpu.dcache.ReadReq_mshr_miss_latency::total 571176731500                       # number of ReadReq MSHR miss cycles
system.cpu.dcache.ReadReq_mshr_miss_rate::.switch_cpus.data     0.425224                       # mshr miss rate for ReadReq accesses
system.cpu.dcache.ReadReq_mshr_miss_rate::total     0.425224                       # mshr miss rate for ReadReq accesses
system.cpu.dcache.ReadReq_avg_mshr_miss_latency::.switch_cpus.data 76175.291327                       # average ReadReq mshr miss latency
system.cpu.dcache.ReadReq_avg_mshr_miss_latency::total 76175.291327                       # average ReadReq mshr miss latency
system.cpu.dcache.WriteReq_hits::.switch_cpus.data      4312984                       # number of WriteReq hits
system.cpu.dcache.WriteReq_hits::total        4312984                       # number of WriteReq hits
system.cpu.dcache.WriteReq_misses::.switch_cpus.data       299794                       # number of WriteReq misses
system.cpu.dcache.WriteReq_misses::total       299794                       # number of WriteReq misses
system.cpu.dcache.WriteReq_miss_latency::.switch_cpus.data  26313690289                       # number of WriteReq miss cycles
system.cpu.dcache.WriteReq_miss_latency::total  26313690289                       # number of WriteReq miss cycles
system.cpu.dcache.WriteReq_accesses::.switch_cpus.data      4612778                       # number of WriteReq accesses(hits+misses)
system.cpu.dcache.WriteReq_accesses::total      4612778                       # number of WriteReq accesses(hits+misses)
system.cpu.dcache.WriteReq_miss_rate::.switch_cpus.data     0.064992                       # miss rate for WriteReq accesses
system.cpu.dcache.WriteReq_miss_rate::total     0.064992                       # miss rate for WriteReq accesses
system.cpu.dcache.WriteReq_avg_miss_latency::.switch_cpus.data 87772.571462                       # average WriteReq miss latency
system.cpu.dcache.WriteReq_avg_miss_latency::total 87772.571462                       # average WriteReq miss latency
system.cpu.dcache.WriteReq_mshr_hits::.switch_cpus.data            9                       # number of WriteReq MSHR hits
system.cpu.dcache.WriteReq_mshr_hits::total            9                       # number of WriteReq MSHR hits
system.cpu.dcache.WriteReq_mshr_misses::.switch_cpus.data       299785                       # number of WriteReq MSHR misses
system.cpu.dcache.WriteReq_mshr_misses::total       299785                       # number of WriteReq MSHR misses
system.cpu.dcache.WriteReq_mshr_miss_latency::.switch_cpus.data  26013679790                       # number of WriteReq MSHR miss cycles
system.cpu.dcache.WriteReq_mshr_miss_latency::total  26013679790                       # number of WriteReq MSHR miss cycles
system.cpu.dcache.WriteReq_mshr_miss_rate::.switch_cpus.data     0.064990                       # mshr miss rate for WriteReq accesses
system.cpu.dcache.WriteReq_mshr_miss_rate::total     0.064990                       # mshr miss rate for WriteReq accesses
system.cpu.dcache.WriteReq_avg_mshr_miss_latency::.switch_cpus.data 86774.454326                       # average WriteReq mshr miss latency
system.cpu.dcache.WriteReq_avg_mshr_miss_latency::total 86774.454326                       # average WriteReq mshr miss latency
system.cpu.dcache.tags.pwrStateResidencyTicks::UNDEFINED 93044844873000                       # Cumulative time (in ticks) in various power states
system.cpu.dcache.tags.tagsinuse             2.902424                       # Cycle average of tags in use
system.cpu.dcache.tags.total_refs            21136495                       # Total number of references to valid blocks.
system.cpu.dcache.tags.sampled_refs           7797974                       # Sample count of references to valid blocks.
system.cpu.dcache.tags.avg_refs              2.710511                       # Average number of references to valid blocks.
system.cpu.dcache.tags.warmup_cycle      92781095431500                       # Cycle when the warmup percentage was hit.
system.cpu.dcache.tags.occ_blocks::.cpu.data     0.000002                       # Average occupied blocks per requestor
system.cpu.dcache.tags.occ_blocks::.switch_cpus.data     2.902422                       # Average occupied blocks per requestor
system.cpu.dcache.tags.occ_percent::.cpu.data     0.000000                       # Average percentage of cache occupancy
system.cpu.dcache.tags.occ_percent::.switch_cpus.data     0.002834                       # Average percentage of cache occupancy
system.cpu.dcache.tags.occ_percent::total     0.002834                       # Average percentage of cache occupancy
system.cpu.dcache.tags.occ_task_id_blocks::1024         1024                       # Occupied blocks per task id
system.cpu.dcache.tags.age_task_id_blocks_1024::0          335                       # Occupied blocks per task id
system.cpu.dcache.tags.age_task_id_blocks_1024::1          686                       # Occupied blocks per task id
system.cpu.dcache.tags.age_task_id_blocks_1024::2            3                       # Occupied blocks per task id
system.cpu.dcache.tags.occ_task_id_percent::1024            1                       # Percentage of cache occupancy per task id
system.cpu.dcache.tags.tag_accesses          52290536                       # Number of tag accesses
system.cpu.dcache.tags.data_accesses         52290536                       # Number of data accesses

---------- End Simulation Statistics   ----------
