
---------- Begin Simulation Statistics ----------
final_tick                               359104419600500                       # Number of ticks from beginning of simulation (restored from checkpoints and never reset)
host_inst_rate                                  40733                       # Simulator instruction rate (inst/s)
host_mem_usage                                 805268                       # Number of bytes of host memory used
host_op_rate                                    68742                       # Simulator op (including micro ops) rate (op/s)
host_seconds                                   245.50                       # Real time elapsed on the host
host_tick_rate                               40373332                       # Simulator tick rate (ticks/s)
sim_freq                                 1000000000000                       # Frequency of simulated ticks
sim_insts                                    10000009                       # Number of instructions simulated
sim_ops                                      16876344                       # Number of ops (including micro ops) simulated
sim_seconds                                  0.009912                       # Number of seconds simulated
sim_ticks                                  9911760500                       # Number of ticks simulated
system.cpu.Branches                                 1                       # Number of branches fetched
system.cpu.committedInsts                           8                       # Number of instructions committed
system.cpu.committedOps                            16                       # Number of ops (including micro ops) committed
system.cpu.dtb.rdAccesses                           4                       # TLB accesses on read requests
system.cpu.dtb.rdMisses                             0                       # TLB misses on read requests
system.cpu.dtb.wrAccesses                           0                       # TLB accesses on write requests
system.cpu.dtb.wrMisses                             0                       # TLB misses on write requests
system.cpu.idle_fraction                            0                       # Percentage of idle cycles
system.cpu.itb.rdAccesses                           0                       # TLB accesses on read requests
system.cpu.itb.rdMisses                             0                       # TLB misses on read requests
system.cpu.itb.wrAccesses                          12                       # TLB accesses on write requests
system.cpu.itb.wrMisses                             0                       # TLB misses on write requests
system.cpu.not_idle_fraction                        1                       # Percentage of non-idle cycles
system.cpu.numCycles                               20                       # number of cpu cycles simulated
system.cpu.numWorkItemsCompleted                    0                       # number of work items this cpu completed
system.cpu.numWorkItemsStarted                      0                       # number of work items this cpu started
system.cpu.num_busy_cycles                         20                       # Number of busy cycles
system.cpu.num_cc_register_reads                    5                       # number of times the CC registers were read
system.cpu.num_conditional_control_insts            1                       # number of instructions that are conditional controls
system.cpu.num_fp_alu_accesses                     13                       # Number of float alu accesses
system.cpu.num_fp_insts                            13                       # number of float instructions
system.cpu.num_fp_register_reads                   20                       # number of times the floating registers were read
system.cpu.num_fp_register_writes                  13                       # number of times the floating registers were written
system.cpu.num_func_calls                           0                       # number of times a function call or return occured
system.cpu.num_idle_cycles                          0                       # Number of idle cycles
system.cpu.num_int_alu_accesses                     6                       # Number of integer alu accesses
system.cpu.num_int_insts                            6                       # number of integer instructions
system.cpu.num_int_register_reads                  13                       # number of times the integer registers were read
system.cpu.num_int_register_writes                  2                       # number of times the integer registers were written
system.cpu.num_load_insts                           3                       # Number of load instructions
system.cpu.num_mem_refs                             3                       # number of memory refs
system.cpu.num_store_insts                          0                       # Number of store instructions
system.cpu.num_vec_alu_accesses                     0                       # Number of vector alu accesses
system.cpu.num_vec_insts                            0                       # number of vector instructions
system.cpu.num_vec_register_reads                   0                       # number of times the vector registers were read
system.cpu.num_vec_register_writes                  0                       # number of times the vector registers were written
system.cpu.op_class::No_OpClass                     0      0.00%      0.00% # Class of executed instruction
system.cpu.op_class::IntAlu                         5     31.25%     31.25% # Class of executed instruction
system.cpu.op_class::IntMult                        0      0.00%     31.25% # Class of executed instruction
system.cpu.op_class::IntDiv                         0      0.00%     31.25% # Class of executed instruction
system.cpu.op_class::FloatAdd                       2     12.50%     43.75% # Class of executed instruction
system.cpu.op_class::FloatCmp                       0      0.00%     43.75% # Class of executed instruction
system.cpu.op_class::FloatCvt                       0      0.00%     43.75% # Class of executed instruction
system.cpu.op_class::FloatMult                      0      0.00%     43.75% # Class of executed instruction
system.cpu.op_class::FloatMultAcc                   0      0.00%     43.75% # Class of executed instruction
system.cpu.op_class::FloatDiv                       0      0.00%     43.75% # Class of executed instruction
system.cpu.op_class::FloatMisc                      0      0.00%     43.75% # Class of executed instruction
system.cpu.op_class::FloatSqrt                      0      0.00%     43.75% # Class of executed instruction
system.cpu.op_class::SimdAdd                        0      0.00%     43.75% # Class of executed instruction
system.cpu.op_class::SimdAddAcc                     0      0.00%     43.75% # Class of executed instruction
system.cpu.op_class::SimdAlu                        2     12.50%     56.25% # Class of executed instruction
system.cpu.op_class::SimdCmp                        0      0.00%     56.25% # Class of executed instruction
system.cpu.op_class::SimdCvt                        0      0.00%     56.25% # Class of executed instruction
system.cpu.op_class::SimdMisc                       0      0.00%     56.25% # Class of executed instruction
system.cpu.op_class::SimdMult                       0      0.00%     56.25% # Class of executed instruction
system.cpu.op_class::SimdMultAcc                    0      0.00%     56.25% # Class of executed instruction
system.cpu.op_class::SimdShift                      0      0.00%     56.25% # Class of executed instruction
system.cpu.op_class::SimdShiftAcc                   0      0.00%     56.25% # Class of executed instruction
system.cpu.op_class::SimdDiv                        0      0.00%     56.25% # Class of executed instruction
system.cpu.op_class::SimdSqrt                       0      0.00%     56.25% # Class of executed instruction
system.cpu.op_class::SimdFloatAdd                   3     18.75%     75.00% # Class of executed instruction
system.cpu.op_class::SimdFloatAlu                   0      0.00%     75.00% # Class of executed instruction
system.cpu.op_class::SimdFloatCmp                   0      0.00%     75.00% # Class of executed instruction
system.cpu.op_class::SimdFloatCvt                   0      0.00%     75.00% # Class of executed instruction
system.cpu.op_class::SimdFloatDiv                   0      0.00%     75.00% # Class of executed instruction
system.cpu.op_class::SimdFloatMisc                  0      0.00%     75.00% # Class of executed instruction
system.cpu.op_class::SimdFloatMult                  1      6.25%     81.25% # Class of executed instruction
system.cpu.op_class::SimdFloatMultAcc               0      0.00%     81.25% # Class of executed instruction
system.cpu.op_class::SimdFloatSqrt                  0      0.00%     81.25% # Class of executed instruction
system.cpu.op_class::SimdReduceAdd                  0      0.00%     81.25% # Class of executed instruction
system.cpu.op_class::SimdReduceAlu                  0      0.00%     81.25% # Class of executed instruction
system.cpu.op_class::SimdReduceCmp                  0      0.00%     81.25% # Class of executed instruction
system.cpu.op_class::SimdFloatReduceAdd             0      0.00%     81.25% # Class of executed instruction
system.cpu.op_class::SimdFloatReduceCmp             0      0.00%     81.25% # Class of executed instruction
system.cpu.op_class::SimdAes                        0      0.00%     81.25% # Class of executed instruction
system.cpu.op_class::SimdAesMix                     0      0.00%     81.25% # Class of executed instruction
system.cpu.op_class::SimdSha1Hash                   0      0.00%     81.25% # Class of executed instruction
system.cpu.op_class::SimdSha1Hash2                  0      0.00%     81.25% # Class of executed instruction
system.cpu.op_class::SimdSha256Hash                 0      0.00%     81.25% # Class of executed instruction
system.cpu.op_class::SimdSha256Hash2                0      0.00%     81.25% # Class of executed instruction
system.cpu.op_class::SimdShaSigma2                  0      0.00%     81.25% # Class of executed instruction
system.cpu.op_class::SimdShaSigma3                  0      0.00%     81.25% # Class of executed instruction
system.cpu.op_class::SimdPredAlu                    0      0.00%     81.25% # Class of executed instruction
system.cpu.op_class::MemRead                        0      0.00%     81.25% # Class of executed instruction
system.cpu.op_class::MemWrite                       0      0.00%     81.25% # Class of executed instruction
system.cpu.op_class::FloatMemRead                   3     18.75%    100.00% # Class of executed instruction
system.cpu.op_class::FloatMemWrite                  0      0.00%    100.00% # Class of executed instruction
system.cpu.op_class::IprAccess                      0      0.00%    100.00% # Class of executed instruction
system.cpu.op_class::InstPrefetch                   0      0.00%    100.00% # Class of executed instruction
system.cpu.op_class::total                         16                       # Class of executed instruction
system.cpu.workload.numSyscalls                     0                       # Number of system calls
system.membus.snoop_filter.hit_multi_requests            0                       # Number of requests hitting in the snoop filter with multiple (>1) holders of the requested data.
system.membus.snoop_filter.hit_multi_snoops            0                       # Number of snoops hitting in the snoop filter with multiple (>1) holders of the requested data.
system.membus.snoop_filter.hit_single_requests       187889                       # Number of requests hitting in the snoop filter with a single holder of the requested data.
system.membus.snoop_filter.hit_single_snoops            0                       # Number of snoops hitting in the snoop filter with a single holder of the requested data.
system.membus.snoop_filter.tot_requests        378784                       # Total number of requests made to the snoop filter.
system.membus.snoop_filter.tot_snoops               0                       # Total number of snoops made to the snoop filter.
system.switch_cpus.branchPred.BTBCorrect            0                       # Number of correct BTB predictions (this stat may not work properly.
system.switch_cpus.branchPred.BTBHitPct      0.000000                       # BTB Hit Percentage
system.switch_cpus.branchPred.BTBHits               0                       # Number of BTB hits
system.switch_cpus.branchPred.BTBLookups      1383041                       # Number of BTB lookups
system.switch_cpus.branchPred.RASInCorrect           34                       # Number of incorrect RAS predictions.
system.switch_cpus.branchPred.condIncorrect        77103                       # Number of conditional branches incorrect
system.switch_cpus.branchPred.condPredicted      1409008                       # Number of conditional branches predicted
system.switch_cpus.branchPred.indirectHits      1027337                       # Number of indirect target hits.
system.switch_cpus.branchPred.indirectLookups      1383041                       # Number of indirect predictor lookups.
system.switch_cpus.branchPred.indirectMisses       355704                       # Number of indirect misses.
system.switch_cpus.branchPred.lookups         1510227                       # Number of BP lookups
system.switch_cpus.branchPred.usedRAS           49367                       # Number of times the RAS was used to get a target.
system.switch_cpus.branchPredindirectMispredicted        19831                       # Number of mispredicted indirect branches.
system.switch_cpus.cc_regfile_reads           6495071                       # number of cc regfile reads
system.switch_cpus.cc_regfile_writes          4465664                       # number of cc regfile writes
system.switch_cpus.commit.amos                      0                       # Number of atomic instructions committed
system.switch_cpus.commit.branchMispredicts        77181                       # The number of times a branch was mispredicted
system.switch_cpus.commit.branches            1049066                       # Number of branches committed
system.switch_cpus.commit.bw_lim_events       1445872                       # number cycles where commit BW limit reached
system.switch_cpus.commit.commitSquashedInsts      3115436                       # The number of squashed insts skipped by commit
system.switch_cpus.commit.committedInsts     10000001                       # Number of instructions committed
system.switch_cpus.commit.committedOps       16876328                       # Number of ops (including micro ops) committed
system.switch_cpus.commit.committed_per_cycle::samples     19326001                       # Number of insts commited each cycle
system.switch_cpus.commit.committed_per_cycle::mean     0.873245                       # Number of insts commited each cycle
system.switch_cpus.commit.committed_per_cycle::stdev     2.255181                       # Number of insts commited each cycle
system.switch_cpus.commit.committed_per_cycle::underflows            0      0.00%      0.00% # Number of insts commited each cycle
system.switch_cpus.commit.committed_per_cycle::0     15896708     82.26%     82.26% # Number of insts commited each cycle
system.switch_cpus.commit.committed_per_cycle::1       883858      4.57%     86.83% # Number of insts commited each cycle
system.switch_cpus.commit.committed_per_cycle::2       141903      0.73%     87.56% # Number of insts commited each cycle
system.switch_cpus.commit.committed_per_cycle::3       219592      1.14%     88.70% # Number of insts commited each cycle
system.switch_cpus.commit.committed_per_cycle::4       392945      2.03%     90.73% # Number of insts commited each cycle
system.switch_cpus.commit.committed_per_cycle::5       212947      1.10%     91.83% # Number of insts commited each cycle
system.switch_cpus.commit.committed_per_cycle::6        78835      0.41%     92.24% # Number of insts commited each cycle
system.switch_cpus.commit.committed_per_cycle::7        53341      0.28%     92.52% # Number of insts commited each cycle
system.switch_cpus.commit.committed_per_cycle::8      1445872      7.48%    100.00% # Number of insts commited each cycle
system.switch_cpus.commit.committed_per_cycle::overflows            0      0.00%    100.00% # Number of insts commited each cycle
system.switch_cpus.commit.committed_per_cycle::min_value            0                       # Number of insts commited each cycle
system.switch_cpus.commit.committed_per_cycle::max_value            8                       # Number of insts commited each cycle
system.switch_cpus.commit.committed_per_cycle::total     19326001                       # Number of insts commited each cycle
system.switch_cpus.commit.fp_insts            8713194                       # Number of committed floating point instructions.
system.switch_cpus.commit.function_calls        26226                       # Number of function calls committed.
system.switch_cpus.commit.int_insts          10019631                       # Number of committed integer instructions.
system.switch_cpus.commit.loads               2743170                       # Number of loads committed
system.switch_cpus.commit.membars                   0                       # Number of memory barriers committed
system.switch_cpus.commit.op_class_0::No_OpClass        27517      0.16%      0.16% # Class of committed instruction
system.switch_cpus.commit.op_class_0::IntAlu      7410720     43.91%     44.07% # Class of committed instruction
system.switch_cpus.commit.op_class_0::IntMult          119      0.00%     44.08% # Class of committed instruction
system.switch_cpus.commit.op_class_0::IntDiv           56      0.00%     44.08% # Class of committed instruction
system.switch_cpus.commit.op_class_0::FloatAdd       891416      5.28%     49.36% # Class of committed instruction
system.switch_cpus.commit.op_class_0::FloatCmp            0      0.00%     49.36% # Class of committed instruction
system.switch_cpus.commit.op_class_0::FloatCvt            0      0.00%     49.36% # Class of committed instruction
system.switch_cpus.commit.op_class_0::FloatMult            0      0.00%     49.36% # Class of committed instruction
system.switch_cpus.commit.op_class_0::FloatMultAcc            0      0.00%     49.36% # Class of committed instruction
system.switch_cpus.commit.op_class_0::FloatDiv            0      0.00%     49.36% # Class of committed instruction
system.switch_cpus.commit.op_class_0::FloatMisc            0      0.00%     49.36% # Class of committed instruction
system.switch_cpus.commit.op_class_0::FloatSqrt            0      0.00%     49.36% # Class of committed instruction
system.switch_cpus.commit.op_class_0::SimdAdd            0      0.00%     49.36% # Class of committed instruction
system.switch_cpus.commit.op_class_0::SimdAddAcc            0      0.00%     49.36% # Class of committed instruction
system.switch_cpus.commit.op_class_0::SimdAlu      1379320      8.17%     57.53% # Class of committed instruction
system.switch_cpus.commit.op_class_0::SimdCmp            0      0.00%     57.53% # Class of committed instruction
system.switch_cpus.commit.op_class_0::SimdCvt            4      0.00%     57.53% # Class of committed instruction
system.switch_cpus.commit.op_class_0::SimdMisc        34436      0.20%     57.74% # Class of committed instruction
system.switch_cpus.commit.op_class_0::SimdMult            0      0.00%     57.74% # Class of committed instruction
system.switch_cpus.commit.op_class_0::SimdMultAcc            0      0.00%     57.74% # Class of committed instruction
system.switch_cpus.commit.op_class_0::SimdShift            0      0.00%     57.74% # Class of committed instruction
system.switch_cpus.commit.op_class_0::SimdShiftAcc            0      0.00%     57.74% # Class of committed instruction
system.switch_cpus.commit.op_class_0::SimdDiv            0      0.00%     57.74% # Class of committed instruction
system.switch_cpus.commit.op_class_0::SimdSqrt            0      0.00%     57.74% # Class of committed instruction
system.switch_cpus.commit.op_class_0::SimdFloatAdd      1310530      7.77%     65.50% # Class of committed instruction
system.switch_cpus.commit.op_class_0::SimdFloatAlu            0      0.00%     65.50% # Class of committed instruction
system.switch_cpus.commit.op_class_0::SimdFloatCmp        15450      0.09%     65.59% # Class of committed instruction
system.switch_cpus.commit.op_class_0::SimdFloatCvt      1398264      8.29%     73.88% # Class of committed instruction
system.switch_cpus.commit.op_class_0::SimdFloatDiv            0      0.00%     73.88% # Class of committed instruction
system.switch_cpus.commit.op_class_0::SimdFloatMisc            0      0.00%     73.88% # Class of committed instruction
system.switch_cpus.commit.op_class_0::SimdFloatMult      1344926      7.97%     81.85% # Class of committed instruction
system.switch_cpus.commit.op_class_0::SimdFloatMultAcc            0      0.00%     81.85% # Class of committed instruction
system.switch_cpus.commit.op_class_0::SimdFloatSqrt            0      0.00%     81.85% # Class of committed instruction
system.switch_cpus.commit.op_class_0::SimdReduceAdd            0      0.00%     81.85% # Class of committed instruction
system.switch_cpus.commit.op_class_0::SimdReduceAlu            0      0.00%     81.85% # Class of committed instruction
system.switch_cpus.commit.op_class_0::SimdReduceCmp            0      0.00%     81.85% # Class of committed instruction
system.switch_cpus.commit.op_class_0::SimdFloatReduceAdd            0      0.00%     81.85% # Class of committed instruction
system.switch_cpus.commit.op_class_0::SimdFloatReduceCmp            0      0.00%     81.85% # Class of committed instruction
system.switch_cpus.commit.op_class_0::SimdAes            0      0.00%     81.85% # Class of committed instruction
system.switch_cpus.commit.op_class_0::SimdAesMix            0      0.00%     81.85% # Class of committed instruction
system.switch_cpus.commit.op_class_0::SimdSha1Hash            0      0.00%     81.85% # Class of committed instruction
system.switch_cpus.commit.op_class_0::SimdSha1Hash2            0      0.00%     81.85% # Class of committed instruction
system.switch_cpus.commit.op_class_0::SimdSha256Hash            0      0.00%     81.85% # Class of committed instruction
system.switch_cpus.commit.op_class_0::SimdSha256Hash2            0      0.00%     81.85% # Class of committed instruction
system.switch_cpus.commit.op_class_0::SimdShaSigma2            0      0.00%     81.85% # Class of committed instruction
system.switch_cpus.commit.op_class_0::SimdShaSigma3            0      0.00%     81.85% # Class of committed instruction
system.switch_cpus.commit.op_class_0::SimdPredAlu            0      0.00%     81.85% # Class of committed instruction
system.switch_cpus.commit.op_class_0::MemRead       937733      5.56%     87.40% # Class of committed instruction
system.switch_cpus.commit.op_class_0::MemWrite       275299      1.63%     89.03% # Class of committed instruction
system.switch_cpus.commit.op_class_0::FloatMemRead      1805437     10.70%     99.73% # Class of committed instruction
system.switch_cpus.commit.op_class_0::FloatMemWrite        45101      0.27%    100.00% # Class of committed instruction
system.switch_cpus.commit.op_class_0::IprAccess            0      0.00%    100.00% # Class of committed instruction
system.switch_cpus.commit.op_class_0::InstPrefetch            0      0.00%    100.00% # Class of committed instruction
system.switch_cpus.commit.op_class_0::total     16876328                       # Class of committed instruction
system.switch_cpus.commit.refs                3063570                       # Number of memory references committed
system.switch_cpus.commit.swp_count                 0                       # Number of s/w prefetches committed
system.switch_cpus.commit.vec_insts                 0                       # Number of committed Vector instructions.
system.switch_cpus.committedInsts            10000001                       # Number of Instructions Simulated
system.switch_cpus.committedOps              16876328                       # Number of Ops (including micro ops) Simulated
system.switch_cpus.cpi                       1.982350                       # CPI: Cycles Per Instruction
system.switch_cpus.cpi_total                 1.982350                       # CPI: Total CPI of All Threads
system.switch_cpus.decode.BlockedCycles      15510833                       # Number of cycles decode is blocked
system.switch_cpus.decode.DecodedInsts       20918136                       # Number of instructions handled by decode
system.switch_cpus.decode.IdleCycles          1189444                       # Number of cycles decode is idle
system.switch_cpus.decode.RunCycles           2152893                       # Number of cycles decode is running
system.switch_cpus.decode.SquashCycles          77451                       # Number of cycles decode is squashing
system.switch_cpus.decode.UnblockCycles        832908                       # Number of cycles decode is unblocking
system.switch_cpus.dtb.rdAccesses             3226986                       # TLB accesses on read requests
system.switch_cpus.dtb.rdMisses                 15636                       # TLB misses on read requests
system.switch_cpus.dtb.wrAccesses              370286                       # TLB accesses on write requests
system.switch_cpus.dtb.wrMisses                  1272                       # TLB misses on write requests
system.switch_cpus.fetch.Branches             1510227                       # Number of branches that fetch encountered
system.switch_cpus.fetch.CacheLines           1751824                       # Number of cache lines fetched
system.switch_cpus.fetch.Cycles              17865265                       # Number of cycles fetch has run and was not squashing or blocked
system.switch_cpus.fetch.IcacheSquashes         17036                       # Number of outstanding Icache misses that were squashed
system.switch_cpus.fetch.IcacheWaitRetryStallCycles           88                       # Number of stall cycles due to full MSHR
system.switch_cpus.fetch.Insts               13131642                       # Number of instructions fetch has processed
system.switch_cpus.fetch.MiscStallCycles           79                       # Number of cycles fetch has spent waiting on interrupts, or bad addresses, or out of MSHRs
system.switch_cpus.fetch.PendingTrapStallCycles         2829                       # Number of stall cycles due to pending traps
system.switch_cpus.fetch.SquashCycles          154902                       # Number of cycles fetch has spent squashing
system.switch_cpus.fetch.branchRate          0.076184                       # Number of branch fetches per cycle
system.switch_cpus.fetch.icacheStallCycles      1817821                       # Number of cycles fetch is stalled on an Icache miss
system.switch_cpus.fetch.predictedBranches      1076704                       # Number of branches that fetch has predicted taken
system.switch_cpus.fetch.rate                0.662428                       # Number of inst fetches per cycle
system.switch_cpus.fetch.rateDist::samples     19763533                       # Number of instructions fetched each cycle (Total)
system.switch_cpus.fetch.rateDist::mean      1.126308                       # Number of instructions fetched each cycle (Total)
system.switch_cpus.fetch.rateDist::stdev     2.537069                       # Number of instructions fetched each cycle (Total)
system.switch_cpus.fetch.rateDist::underflows            0      0.00%      0.00% # Number of instructions fetched each cycle (Total)
system.switch_cpus.fetch.rateDist::0         15982980     80.87%     80.87% # Number of instructions fetched each cycle (Total)
system.switch_cpus.fetch.rateDist::1           280472      1.42%     82.29% # Number of instructions fetched each cycle (Total)
system.switch_cpus.fetch.rateDist::2           217212      1.10%     83.39% # Number of instructions fetched each cycle (Total)
system.switch_cpus.fetch.rateDist::3           226959      1.15%     84.54% # Number of instructions fetched each cycle (Total)
system.switch_cpus.fetch.rateDist::4           327282      1.66%     86.19% # Number of instructions fetched each cycle (Total)
system.switch_cpus.fetch.rateDist::5           390221      1.97%     88.17% # Number of instructions fetched each cycle (Total)
system.switch_cpus.fetch.rateDist::6           496626      2.51%     90.68% # Number of instructions fetched each cycle (Total)
system.switch_cpus.fetch.rateDist::7           110182      0.56%     91.24% # Number of instructions fetched each cycle (Total)
system.switch_cpus.fetch.rateDist::8          1731599      8.76%    100.00% # Number of instructions fetched each cycle (Total)
system.switch_cpus.fetch.rateDist::overflows            0      0.00%    100.00% # Number of instructions fetched each cycle (Total)
system.switch_cpus.fetch.rateDist::min_value            0                       # Number of instructions fetched each cycle (Total)
system.switch_cpus.fetch.rateDist::max_value            8                       # Number of instructions fetched each cycle (Total)
system.switch_cpus.fetch.rateDist::total     19763533                       # Number of instructions fetched each cycle (Total)
system.switch_cpus.fp_regfile_reads          14836056                       # number of floating regfile reads
system.switch_cpus.fp_regfile_writes          8827802                       # number of floating regfile writes
system.switch_cpus.idleCycles                   59968                       # Total number of cycles that the CPU has spent unscheduled due to idling
system.switch_cpus.iew.branchMispredicts        87072                       # Number of branch mispredicts detected at execute
system.switch_cpus.iew.exec_branches          1168732                       # Number of branches executed
system.switch_cpus.iew.exec_nop                     0                       # number of nop insts executed
system.switch_cpus.iew.exec_rate             0.958757                       # Inst execution rate
system.switch_cpus.iew.exec_refs              3706753                       # number of memory reference insts executed
system.switch_cpus.iew.exec_stores             370219                       # Number of stores executed
system.switch_cpus.iew.exec_swp                     0                       # number of swp insts executed
system.switch_cpus.iew.iewBlockCycles         8183790                       # Number of cycles IEW is blocking
system.switch_cpus.iew.iewDispLoadInsts       3316334                       # Number of dispatched load instructions
system.switch_cpus.iew.iewDispNonSpecInsts           19                       # Number of dispatched non-speculative instructions
system.switch_cpus.iew.iewDispSquashedInsts         6912                       # Number of squashed instructions skipped by dispatch
system.switch_cpus.iew.iewDispStoreInsts       432644                       # Number of dispatched store instructions
system.switch_cpus.iew.iewDispatchedInsts     19988365                       # Number of instructions dispatched to IQ
system.switch_cpus.iew.iewExecLoadInsts       3336534                       # Number of load instructions executed
system.switch_cpus.iew.iewExecSquashedInsts       140126                       # Number of squashed instructions skipped in execute
system.switch_cpus.iew.iewExecutedInsts      19005913                       # Number of executed instructions
system.switch_cpus.iew.iewIQFullEvents          85218                       # Number of times the IQ has become full, causing a stall
system.switch_cpus.iew.iewIdleCycles                0                       # Number of cycles IEW is idle
system.switch_cpus.iew.iewLSQFullEvents        673888                       # Number of times the LSQ has become full, causing a stall
system.switch_cpus.iew.iewSquashCycles          77451                       # Number of cycles IEW is squashing
system.switch_cpus.iew.iewUnblockCycles        810484                       # Number of cycles IEW is unblocking
system.switch_cpus.iew.lsq.thread0.blockedLoads            0                       # Number of blocked loads due to partial load-store forwarding
system.switch_cpus.iew.lsq.thread0.cacheBlocked        32049                       # Number of times an access to memory failed due to the cache being blocked
system.switch_cpus.iew.lsq.thread0.forwLoads        55546                       # Number of loads that had data forwarded from stores
system.switch_cpus.iew.lsq.thread0.ignoredResponses          348                       # Number of memory responses ignored because the instruction is squashed
system.switch_cpus.iew.lsq.thread0.invAddrLoads            0                       # Number of loads ignored due to an invalid address
system.switch_cpus.iew.lsq.thread0.invAddrSwpfs            0                       # Number of software prefetches ignored due to an invalid address
system.switch_cpus.iew.lsq.thread0.memOrderViolation          342                       # Number of memory ordering violations
system.switch_cpus.iew.lsq.thread0.rescheduledLoads          267                       # Number of loads that were rescheduled
system.switch_cpus.iew.lsq.thread0.squashedLoads       573145                       # Number of loads squashed
system.switch_cpus.iew.lsq.thread0.squashedStores       112244                       # Number of stores squashed
system.switch_cpus.iew.memOrderViolationEvents          342                       # Number of memory order violations
system.switch_cpus.iew.predictedNotTakenIncorrect        29334                       # Number of branches that were predicted not taken incorrectly
system.switch_cpus.iew.predictedTakenIncorrect        57738                       # Number of branches that were predicted taken incorrectly
system.switch_cpus.iew.wb_consumers          24096718                       # num instructions consuming a value
system.switch_cpus.iew.wb_count              18666770                       # cumulative count of insts written-back
system.switch_cpus.iew.wb_fanout             0.596707                       # average fanout of values written-back
system.switch_cpus.iew.wb_producers          14378678                       # num instructions producing a value
system.switch_cpus.iew.wb_rate               0.941649                       # insts written-back per cycle
system.switch_cpus.iew.wb_sent               18700107                       # cumulative count of insts sent to commit
system.switch_cpus.int_regfile_reads         17305073                       # number of integer regfile reads
system.switch_cpus.int_regfile_writes         8271001                       # number of integer regfile writes
system.switch_cpus.ipc                       0.504452                       # IPC: Instructions Per Cycle
system.switch_cpus.ipc_total                 0.504452                       # IPC: Total IPC of All Threads
system.switch_cpus.iq.FU_type_0::No_OpClass        39131      0.20%      0.20% # Type of FU issued
system.switch_cpus.iq.FU_type_0::IntAlu       8800046     45.96%     46.17% # Type of FU issued
system.switch_cpus.iq.FU_type_0::IntMult          220      0.00%     46.17% # Type of FU issued
system.switch_cpus.iq.FU_type_0::IntDiv            87      0.00%     46.17% # Type of FU issued
system.switch_cpus.iq.FU_type_0::FloatAdd       968191      5.06%     51.23% # Type of FU issued
system.switch_cpus.iq.FU_type_0::FloatCmp            0      0.00%     51.23% # Type of FU issued
system.switch_cpus.iq.FU_type_0::FloatCvt            0      0.00%     51.23% # Type of FU issued
system.switch_cpus.iq.FU_type_0::FloatMult            0      0.00%     51.23% # Type of FU issued
system.switch_cpus.iq.FU_type_0::FloatMultAcc            0      0.00%     51.23% # Type of FU issued
system.switch_cpus.iq.FU_type_0::FloatDiv            0      0.00%     51.23% # Type of FU issued
system.switch_cpus.iq.FU_type_0::FloatMisc            0      0.00%     51.23% # Type of FU issued
system.switch_cpus.iq.FU_type_0::FloatSqrt            0      0.00%     51.23% # Type of FU issued
system.switch_cpus.iq.FU_type_0::SimdAdd            0      0.00%     51.23% # Type of FU issued
system.switch_cpus.iq.FU_type_0::SimdAddAcc            0      0.00%     51.23% # Type of FU issued
system.switch_cpus.iq.FU_type_0::SimdAlu      1449980      7.57%     58.80% # Type of FU issued
system.switch_cpus.iq.FU_type_0::SimdCmp            0      0.00%     58.80% # Type of FU issued
system.switch_cpus.iq.FU_type_0::SimdCvt            6      0.00%     58.80% # Type of FU issued
system.switch_cpus.iq.FU_type_0::SimdMisc        35236      0.18%     58.98% # Type of FU issued
system.switch_cpus.iq.FU_type_0::SimdMult            0      0.00%     58.98% # Type of FU issued
system.switch_cpus.iq.FU_type_0::SimdMultAcc            0      0.00%     58.98% # Type of FU issued
system.switch_cpus.iq.FU_type_0::SimdShift            0      0.00%     58.98% # Type of FU issued
system.switch_cpus.iq.FU_type_0::SimdShiftAcc            0      0.00%     58.98% # Type of FU issued
system.switch_cpus.iq.FU_type_0::SimdDiv            0      0.00%     58.98% # Type of FU issued
system.switch_cpus.iq.FU_type_0::SimdSqrt            0      0.00%     58.98% # Type of FU issued
system.switch_cpus.iq.FU_type_0::SimdFloatAdd      1317291      6.88%     65.86% # Type of FU issued
system.switch_cpus.iq.FU_type_0::SimdFloatAlu            0      0.00%     65.86% # Type of FU issued
system.switch_cpus.iq.FU_type_0::SimdFloatCmp        15451      0.08%     65.94% # Type of FU issued
system.switch_cpus.iq.FU_type_0::SimdFloatCvt      1409147      7.36%     73.30% # Type of FU issued
system.switch_cpus.iq.FU_type_0::SimdFloatDiv            0      0.00%     73.30% # Type of FU issued
system.switch_cpus.iq.FU_type_0::SimdFloatMisc            0      0.00%     73.30% # Type of FU issued
system.switch_cpus.iq.FU_type_0::SimdFloatMult      1352257      7.06%     80.37% # Type of FU issued
system.switch_cpus.iq.FU_type_0::SimdFloatMultAcc            0      0.00%     80.37% # Type of FU issued
system.switch_cpus.iq.FU_type_0::SimdFloatSqrt            0      0.00%     80.37% # Type of FU issued
system.switch_cpus.iq.FU_type_0::SimdReduceAdd            0      0.00%     80.37% # Type of FU issued
system.switch_cpus.iq.FU_type_0::SimdReduceAlu            0      0.00%     80.37% # Type of FU issued
system.switch_cpus.iq.FU_type_0::SimdReduceCmp            0      0.00%     80.37% # Type of FU issued
system.switch_cpus.iq.FU_type_0::SimdFloatReduceAdd            0      0.00%     80.37% # Type of FU issued
system.switch_cpus.iq.FU_type_0::SimdFloatReduceCmp            0      0.00%     80.37% # Type of FU issued
system.switch_cpus.iq.FU_type_0::SimdAes            0      0.00%     80.37% # Type of FU issued
system.switch_cpus.iq.FU_type_0::SimdAesMix            0      0.00%     80.37% # Type of FU issued
system.switch_cpus.iq.FU_type_0::SimdSha1Hash            0      0.00%     80.37% # Type of FU issued
system.switch_cpus.iq.FU_type_0::SimdSha1Hash2            0      0.00%     80.37% # Type of FU issued
system.switch_cpus.iq.FU_type_0::SimdSha256Hash            0      0.00%     80.37% # Type of FU issued
system.switch_cpus.iq.FU_type_0::SimdSha256Hash2            0      0.00%     80.37% # Type of FU issued
system.switch_cpus.iq.FU_type_0::SimdShaSigma2            0      0.00%     80.37% # Type of FU issued
system.switch_cpus.iq.FU_type_0::SimdShaSigma3            0      0.00%     80.37% # Type of FU issued
system.switch_cpus.iq.FU_type_0::SimdPredAlu            0      0.00%     80.37% # Type of FU issued
system.switch_cpus.iq.FU_type_0::MemRead      1403220      7.33%     87.70% # Type of FU issued
system.switch_cpus.iq.FU_type_0::MemWrite       332203      1.74%     89.43% # Type of FU issued
system.switch_cpus.iq.FU_type_0::FloatMemRead      1977601     10.33%     99.76% # Type of FU issued
system.switch_cpus.iq.FU_type_0::FloatMemWrite        45974      0.24%    100.00% # Type of FU issued
system.switch_cpus.iq.FU_type_0::IprAccess            0      0.00%    100.00% # Type of FU issued
system.switch_cpus.iq.FU_type_0::InstPrefetch            0      0.00%    100.00% # Type of FU issued
system.switch_cpus.iq.FU_type_0::total       19146041                       # Type of FU issued
system.switch_cpus.iq.fp_alu_accesses         9282897                       # Number of floating point alu accesses
system.switch_cpus.iq.fp_inst_queue_reads     18361883                       # Number of floating instruction queue reads
system.switch_cpus.iq.fp_inst_queue_wakeup_accesses      8916527                       # Number of floating instruction queue wakeup accesses
system.switch_cpus.iq.fp_inst_queue_writes      9736297                       # Number of floating instruction queue writes
system.switch_cpus.iq.fu_busy_cnt              358264                       # FU busy when requested
system.switch_cpus.iq.fu_busy_rate           0.018712                       # FU busy rate (busy events/executed inst)
system.switch_cpus.iq.fu_full::No_OpClass            0      0.00%      0.00% # attempts to use FU when none available
system.switch_cpus.iq.fu_full::IntAlu          106794     29.81%     29.81% # attempts to use FU when none available
system.switch_cpus.iq.fu_full::IntMult              0      0.00%     29.81% # attempts to use FU when none available
system.switch_cpus.iq.fu_full::IntDiv               0      0.00%     29.81% # attempts to use FU when none available
system.switch_cpus.iq.fu_full::FloatAdd             0      0.00%     29.81% # attempts to use FU when none available
system.switch_cpus.iq.fu_full::FloatCmp             0      0.00%     29.81% # attempts to use FU when none available
system.switch_cpus.iq.fu_full::FloatCvt             0      0.00%     29.81% # attempts to use FU when none available
system.switch_cpus.iq.fu_full::FloatMult            0      0.00%     29.81% # attempts to use FU when none available
system.switch_cpus.iq.fu_full::FloatMultAcc            0      0.00%     29.81% # attempts to use FU when none available
system.switch_cpus.iq.fu_full::FloatDiv             0      0.00%     29.81% # attempts to use FU when none available
system.switch_cpus.iq.fu_full::FloatMisc            0      0.00%     29.81% # attempts to use FU when none available
system.switch_cpus.iq.fu_full::FloatSqrt            0      0.00%     29.81% # attempts to use FU when none available
system.switch_cpus.iq.fu_full::SimdAdd              0      0.00%     29.81% # attempts to use FU when none available
system.switch_cpus.iq.fu_full::SimdAddAcc            0      0.00%     29.81% # attempts to use FU when none available
system.switch_cpus.iq.fu_full::SimdAlu          62480     17.44%     47.25% # attempts to use FU when none available
system.switch_cpus.iq.fu_full::SimdCmp              0      0.00%     47.25% # attempts to use FU when none available
system.switch_cpus.iq.fu_full::SimdCvt              0      0.00%     47.25% # attempts to use FU when none available
system.switch_cpus.iq.fu_full::SimdMisc             0      0.00%     47.25% # attempts to use FU when none available
system.switch_cpus.iq.fu_full::SimdMult             0      0.00%     47.25% # attempts to use FU when none available
system.switch_cpus.iq.fu_full::SimdMultAcc            0      0.00%     47.25% # attempts to use FU when none available
system.switch_cpus.iq.fu_full::SimdShift            0      0.00%     47.25% # attempts to use FU when none available
system.switch_cpus.iq.fu_full::SimdShiftAcc            0      0.00%     47.25% # attempts to use FU when none available
system.switch_cpus.iq.fu_full::SimdDiv              0      0.00%     47.25% # attempts to use FU when none available
system.switch_cpus.iq.fu_full::SimdSqrt             0      0.00%     47.25% # attempts to use FU when none available
system.switch_cpus.iq.fu_full::SimdFloatAdd        84210     23.51%     70.75% # attempts to use FU when none available
system.switch_cpus.iq.fu_full::SimdFloatAlu            0      0.00%     70.75% # attempts to use FU when none available
system.switch_cpus.iq.fu_full::SimdFloatCmp            0      0.00%     70.75% # attempts to use FU when none available
system.switch_cpus.iq.fu_full::SimdFloatCvt        22656      6.32%     77.08% # attempts to use FU when none available
system.switch_cpus.iq.fu_full::SimdFloatDiv            0      0.00%     77.08% # attempts to use FU when none available
system.switch_cpus.iq.fu_full::SimdFloatMisc            0      0.00%     77.08% # attempts to use FU when none available
system.switch_cpus.iq.fu_full::SimdFloatMult         3228      0.90%     77.98% # attempts to use FU when none available
system.switch_cpus.iq.fu_full::SimdFloatMultAcc            0      0.00%     77.98% # attempts to use FU when none available
system.switch_cpus.iq.fu_full::SimdFloatSqrt            0      0.00%     77.98% # attempts to use FU when none available
system.switch_cpus.iq.fu_full::SimdReduceAdd            0      0.00%     77.98% # attempts to use FU when none available
system.switch_cpus.iq.fu_full::SimdReduceAlu            0      0.00%     77.98% # attempts to use FU when none available
system.switch_cpus.iq.fu_full::SimdReduceCmp            0      0.00%     77.98% # attempts to use FU when none available
system.switch_cpus.iq.fu_full::SimdFloatReduceAdd            0      0.00%     77.98% # attempts to use FU when none available
system.switch_cpus.iq.fu_full::SimdFloatReduceCmp            0      0.00%     77.98% # attempts to use FU when none available
system.switch_cpus.iq.fu_full::SimdAes              0      0.00%     77.98% # attempts to use FU when none available
system.switch_cpus.iq.fu_full::SimdAesMix            0      0.00%     77.98% # attempts to use FU when none available
system.switch_cpus.iq.fu_full::SimdSha1Hash            0      0.00%     77.98% # attempts to use FU when none available
system.switch_cpus.iq.fu_full::SimdSha1Hash2            0      0.00%     77.98% # attempts to use FU when none available
system.switch_cpus.iq.fu_full::SimdSha256Hash            0      0.00%     77.98% # attempts to use FU when none available
system.switch_cpus.iq.fu_full::SimdSha256Hash2            0      0.00%     77.98% # attempts to use FU when none available
system.switch_cpus.iq.fu_full::SimdShaSigma2            0      0.00%     77.98% # attempts to use FU when none available
system.switch_cpus.iq.fu_full::SimdShaSigma3            0      0.00%     77.98% # attempts to use FU when none available
system.switch_cpus.iq.fu_full::SimdPredAlu            0      0.00%     77.98% # attempts to use FU when none available
system.switch_cpus.iq.fu_full::MemRead          37764     10.54%     88.52% # attempts to use FU when none available
system.switch_cpus.iq.fu_full::MemWrite          5902      1.65%     90.17% # attempts to use FU when none available
system.switch_cpus.iq.fu_full::FloatMemRead        35149      9.81%     99.98% # attempts to use FU when none available
system.switch_cpus.iq.fu_full::FloatMemWrite           81      0.02%    100.00% # attempts to use FU when none available
system.switch_cpus.iq.fu_full::IprAccess            0      0.00%    100.00% # attempts to use FU when none available
system.switch_cpus.iq.fu_full::InstPrefetch            0      0.00%    100.00% # attempts to use FU when none available
system.switch_cpus.iq.int_alu_accesses       10182277                       # Number of integer alu accesses
system.switch_cpus.iq.int_inst_queue_reads     40108567                       # Number of integer instruction queue reads
system.switch_cpus.iq.int_inst_queue_wakeup_accesses      9750243                       # Number of integer instruction queue wakeup accesses
system.switch_cpus.iq.int_inst_queue_writes     13364297                       # Number of integer instruction queue writes
system.switch_cpus.iq.iqInstsAdded           19988308                       # Number of instructions added to the IQ (excludes non-spec)
system.switch_cpus.iq.iqInstsIssued          19146041                       # Number of instructions issued
system.switch_cpus.iq.iqNonSpecInstsAdded           57                       # Number of non-speculative instructions added to the IQ
system.switch_cpus.iq.iqSquashedInstsExamined      3111926                       # Number of squashed instructions iterated over during squash; mainly for profiling
system.switch_cpus.iq.iqSquashedInstsIssued        56573                       # Number of squashed instructions issued
system.switch_cpus.iq.iqSquashedNonSpecRemoved           57                       # Number of squashed non-spec instructions that were removed
system.switch_cpus.iq.iqSquashedOperandsExamined      4322278                       # Number of squashed operands that are examined and possibly removed from graph
system.switch_cpus.iq.issued_per_cycle::samples     19763533                       # Number of insts issued each cycle
system.switch_cpus.iq.issued_per_cycle::mean     0.968756                       # Number of insts issued each cycle
system.switch_cpus.iq.issued_per_cycle::stdev     1.860004                       # Number of insts issued each cycle
system.switch_cpus.iq.issued_per_cycle::underflows            0      0.00%      0.00% # Number of insts issued each cycle
system.switch_cpus.iq.issued_per_cycle::0     13879723     70.23%     70.23% # Number of insts issued each cycle
system.switch_cpus.iq.issued_per_cycle::1      1548111      7.83%     78.06% # Number of insts issued each cycle
system.switch_cpus.iq.issued_per_cycle::2      1076276      5.45%     83.51% # Number of insts issued each cycle
system.switch_cpus.iq.issued_per_cycle::3       901098      4.56%     88.07% # Number of insts issued each cycle
system.switch_cpus.iq.issued_per_cycle::4       800678      4.05%     92.12% # Number of insts issued each cycle
system.switch_cpus.iq.issued_per_cycle::5       557377      2.82%     94.94% # Number of insts issued each cycle
system.switch_cpus.iq.issued_per_cycle::6       470744      2.38%     97.32% # Number of insts issued each cycle
system.switch_cpus.iq.issued_per_cycle::7       308185      1.56%     98.88% # Number of insts issued each cycle
system.switch_cpus.iq.issued_per_cycle::8       221341      1.12%    100.00% # Number of insts issued each cycle
system.switch_cpus.iq.issued_per_cycle::overflows            0      0.00%    100.00% # Number of insts issued each cycle
system.switch_cpus.iq.issued_per_cycle::min_value            0                       # Number of insts issued each cycle
system.switch_cpus.iq.issued_per_cycle::max_value            8                       # Number of insts issued each cycle
system.switch_cpus.iq.issued_per_cycle::total     19763533                       # Number of insts issued each cycle
system.switch_cpus.iq.rate                   0.965825                       # Inst issue rate
system.switch_cpus.iq.vec_alu_accesses              0                       # Number of vector alu accesses
system.switch_cpus.iq.vec_inst_queue_reads            0                       # Number of vector instruction queue reads
system.switch_cpus.iq.vec_inst_queue_wakeup_accesses            0                       # Number of vector instruction queue wakeup accesses
system.switch_cpus.iq.vec_inst_queue_writes            0                       # Number of vector instruction queue writes
system.switch_cpus.itb.rdAccesses                   0                       # TLB accesses on read requests
system.switch_cpus.itb.rdMisses                     0                       # TLB misses on read requests
system.switch_cpus.itb.wrAccesses             1752166                       # TLB accesses on write requests
system.switch_cpus.itb.wrMisses                   380                       # TLB misses on write requests
system.switch_cpus.memDep0.conflictingLoads        53762                       # Number of conflicting loads.
system.switch_cpus.memDep0.conflictingStores        20931                       # Number of conflicting stores.
system.switch_cpus.memDep0.insertedLoads      3316334                       # Number of loads inserted to the mem dependence unit.
system.switch_cpus.memDep0.insertedStores       432644                       # Number of stores inserted to the mem dependence unit.
system.switch_cpus.misc_regfile_reads         6181040                       # number of misc regfile reads
system.switch_cpus.misc_regfile_writes              1                       # number of misc regfile writes
system.switch_cpus.numCycles                 19823501                       # number of cpu cycles simulated
system.switch_cpus.numWorkItemsCompleted            0                       # number of work items this cpu completed
system.switch_cpus.numWorkItemsStarted              0                       # number of work items this cpu started
system.switch_cpus.rename.BlockCycles        12734492                       # Number of cycles rename is blocking
system.switch_cpus.rename.CommittedMaps      19414366                       # Number of HB maps that are committed
system.switch_cpus.rename.IQFullEvents        1477153                       # Number of times rename has blocked due to IQ full
system.switch_cpus.rename.IdleCycles          1539558                       # Number of cycles rename is idle
system.switch_cpus.rename.LQFullEvents         635401                       # Number of times rename has blocked due to LQ full
system.switch_cpus.rename.ROBFullEvents        182800                       # Number of times rename has blocked due to ROB full
system.switch_cpus.rename.RenameLookups      49600347                       # Number of register rename lookups that rename has made
system.switch_cpus.rename.RenamedInsts       20547620                       # Number of instructions processed by rename
system.switch_cpus.rename.RenamedOperands     23812152                       # Number of destination operands rename has renamed
system.switch_cpus.rename.RunCycles           2575297                       # Number of cycles rename is running
system.switch_cpus.rename.SQFullEvents         469033                       # Number of times rename has blocked due to SQ full
system.switch_cpus.rename.SquashCycles          77451                       # Number of cycles rename is squashing
system.switch_cpus.rename.UnblockCycles       2836731                       # Number of cycles rename is unblocking
system.switch_cpus.rename.UndoneMaps          4397654                       # Number of HB maps that are undone due to squashing
system.switch_cpus.rename.fp_rename_lookups     15653033                       # Number of floating rename lookups
system.switch_cpus.rename.int_rename_lookups     19472843                       # Number of integer rename lookups
system.switch_cpus.rename.serializeStallCycles            0                       # count of cycles rename stalled for serializing inst
system.switch_cpus.rename.serializingInsts            0                       # count of serializing insts renamed
system.switch_cpus.rename.skidInsts           4407540                       # count of insts added to the skid buffer
system.switch_cpus.rename.tempSerializingInsts            0                       # count of temporary serializing insts renamed
system.switch_cpus.rob.rob_reads             37871893                       # The number of ROB reads
system.switch_cpus.rob.rob_writes            40422022                       # The number of ROB writes
system.switch_cpus.timesIdled                     633                       # Number of times that the entire CPU went into an idle state and unscheduled itself
system.tol2bus.snoop_filter.hit_multi_requests            0                       # Number of requests hitting in the snoop filter with multiple (>1) holders of the requested data.
system.tol2bus.snoop_filter.hit_multi_snoops            0                       # Number of snoops hitting in the snoop filter with multiple (>1) holders of the requested data.
system.tol2bus.snoop_filter.hit_single_requests       205913                       # Number of requests hitting in the snoop filter with a single holder of the requested data.
system.tol2bus.snoop_filter.hit_single_snoops       181447                       # Number of snoops hitting in the snoop filter with a single holder of the requested data.
system.tol2bus.snoop_filter.tot_requests       413313                       # Total number of requests made to the snoop filter.
system.tol2bus.snoop_filter.tot_snoops         181447                       # Total number of snoops made to the snoop filter.
system.membus.pwrStateResidencyTicks::UNDEFINED 359104419600500                       # Cumulative time (in ticks) in various power states
system.membus.trans_dist::ReadResp             182162                       # Transaction distribution
system.membus.trans_dist::WritebackDirty        16465                       # Transaction distribution
system.membus.trans_dist::CleanEvict           171424                       # Transaction distribution
system.membus.trans_dist::ReadExReq              8732                       # Transaction distribution
system.membus.trans_dist::ReadExResp             8732                       # Transaction distribution
system.membus.trans_dist::ReadSharedReq        182163                       # Transaction distribution
system.membus.pkt_count_system.l2.mem_side::system.mem_ctrls.port       569678                       # Packet count per connected master and slave (bytes)
system.membus.pkt_count_system.l2.mem_side::total       569678                       # Packet count per connected master and slave (bytes)
system.membus.pkt_count::total                 569678                       # Packet count per connected master and slave (bytes)
system.membus.pkt_size_system.l2.mem_side::system.mem_ctrls.port     13270976                       # Cumulative packet size per connected master and slave (bytes)
system.membus.pkt_size_system.l2.mem_side::total     13270976                       # Cumulative packet size per connected master and slave (bytes)
system.membus.pkt_size::total                13270976                       # Cumulative packet size per connected master and slave (bytes)
system.membus.snoops                                0                       # Total snoops (count)
system.membus.snoopTraffic                          0                       # Total snoop traffic (bytes)
system.membus.snoop_fanout::samples            190895                       # Request fanout histogram
system.membus.snoop_fanout::mean                    0                       # Request fanout histogram
system.membus.snoop_fanout::stdev                   0                       # Request fanout histogram
system.membus.snoop_fanout::underflows              0      0.00%      0.00% # Request fanout histogram
system.membus.snoop_fanout::0                  190895    100.00%    100.00% # Request fanout histogram
system.membus.snoop_fanout::1                       0      0.00%    100.00% # Request fanout histogram
system.membus.snoop_fanout::overflows               0      0.00%    100.00% # Request fanout histogram
system.membus.snoop_fanout::min_value               0                       # Request fanout histogram
system.membus.snoop_fanout::max_value               0                       # Request fanout histogram
system.membus.snoop_fanout::total              190895                       # Request fanout histogram
system.membus.reqLayer2.occupancy           483524500                       # Layer occupancy (ticks)
system.membus.reqLayer2.utilization               4.9                       # Layer utilization (%)
system.membus.respLayer1.occupancy         1023114500                       # Layer occupancy (ticks)
system.membus.respLayer1.utilization             10.3                       # Layer utilization (%)
system.switch_cpus.pwrStateResidencyTicks::OFF   9911760500                       # Cumulative time (in ticks) in various power states
system.switch_cpus.dtb.walker.pwrStateResidencyTicks::UNDEFINED 359104419600500                       # Cumulative time (in ticks) in various power states
system.switch_cpus.itb.walker.pwrStateResidencyTicks::UNDEFINED 359104419600500                       # Cumulative time (in ticks) in various power states
system.tol2bus.pwrStateResidencyTicks::UNDEFINED 359104419600500                       # Cumulative time (in ticks) in various power states
system.tol2bus.trans_dist::ReadResp            197303                       # Transaction distribution
system.tol2bus.trans_dist::WritebackDirty        43672                       # Transaction distribution
system.tol2bus.trans_dist::WritebackClean          473                       # Transaction distribution
system.tol2bus.trans_dist::CleanEvict          367891                       # Transaction distribution
system.tol2bus.trans_dist::ReadExReq            10095                       # Transaction distribution
system.tol2bus.trans_dist::ReadExResp           10095                       # Transaction distribution
system.tol2bus.trans_dist::ReadCleanReq           934                       # Transaction distribution
system.tol2bus.trans_dist::ReadSharedReq       196371                       # Transaction distribution
system.tol2bus.pkt_count_system.cpu.icache.mem_side::system.l2.cpu_side         2341                       # Packet count per connected master and slave (bytes)
system.tol2bus.pkt_count_system.cpu.dcache.mem_side::system.l2.cpu_side       618370                       # Packet count per connected master and slave (bytes)
system.tol2bus.pkt_count::total                620711                       # Packet count per connected master and slave (bytes)
system.tol2bus.pkt_size_system.cpu.icache.mem_side::system.l2.cpu_side        90048                       # Cumulative packet size per connected master and slave (bytes)
system.tol2bus.pkt_size_system.cpu.dcache.mem_side::system.l2.cpu_side     14954944                       # Cumulative packet size per connected master and slave (bytes)
system.tol2bus.pkt_size::total               15044992                       # Cumulative packet size per connected master and slave (bytes)
system.tol2bus.snoops                          206123                       # Total snoops (count)
system.tol2bus.snoopTraffic                   1053760                       # Total snoop traffic (bytes)
system.tol2bus.snoop_fanout::samples           413523                       # Request fanout histogram
system.tol2bus.snoop_fanout::mean            0.438783                       # Request fanout histogram
system.tol2bus.snoop_fanout::stdev           0.496239                       # Request fanout histogram
system.tol2bus.snoop_fanout::underflows             0      0.00%      0.00% # Request fanout histogram
system.tol2bus.snoop_fanout::0                 232076     56.12%     56.12% # Request fanout histogram
system.tol2bus.snoop_fanout::1                 181447     43.88%    100.00% # Request fanout histogram
system.tol2bus.snoop_fanout::2                      0      0.00%    100.00% # Request fanout histogram
system.tol2bus.snoop_fanout::3                      0      0.00%    100.00% # Request fanout histogram
system.tol2bus.snoop_fanout::4                      0      0.00%    100.00% # Request fanout histogram
system.tol2bus.snoop_fanout::overflows              0      0.00%    100.00% # Request fanout histogram
system.tol2bus.snoop_fanout::min_value              0                       # Request fanout histogram
system.tol2bus.snoop_fanout::max_value              1                       # Request fanout histogram
system.tol2bus.snoop_fanout::total             413523                       # Request fanout histogram
system.tol2bus.reqLayer0.occupancy          234334000                       # Layer occupancy (ticks)
system.tol2bus.reqLayer0.utilization              2.4                       # Layer utilization (%)
system.tol2bus.respLayer1.occupancy         309691999                       # Layer occupancy (ticks)
system.tol2bus.respLayer1.utilization             3.1                       # Layer utilization (%)
system.tol2bus.respLayer0.occupancy           1398000                       # Layer occupancy (ticks)
system.tol2bus.respLayer0.utilization             0.0                       # Layer utilization (%)
system.voltage_domain.voltage                       1                       # Voltage in Volts
system.clk_domain.clock                          1000                       # Clock period in ticks
system.l2.pwrStateResidencyTicks::UNDEFINED 359104419600500                       # Cumulative time (in ticks) in various power states
system.l2.demand_hits::.switch_cpus.inst           51                       # number of demand (read+write) hits
system.l2.demand_hits::.switch_cpus.data        16453                       # number of demand (read+write) hits
system.l2.demand_hits::total                    16504                       # number of demand (read+write) hits
system.l2.overall_hits::.switch_cpus.inst           51                       # number of overall hits
system.l2.overall_hits::.switch_cpus.data        16453                       # number of overall hits
system.l2.overall_hits::total                   16504                       # number of overall hits
system.l2.demand_misses::.cpu.inst                  2                       # number of demand (read+write) misses
system.l2.demand_misses::.cpu.data                  3                       # number of demand (read+write) misses
system.l2.demand_misses::.switch_cpus.inst          881                       # number of demand (read+write) misses
system.l2.demand_misses::.switch_cpus.data       190010                       # number of demand (read+write) misses
system.l2.demand_misses::total                 190896                       # number of demand (read+write) misses
system.l2.overall_misses::.cpu.inst                 2                       # number of overall misses
system.l2.overall_misses::.cpu.data                 3                       # number of overall misses
system.l2.overall_misses::.switch_cpus.inst          881                       # number of overall misses
system.l2.overall_misses::.switch_cpus.data       190010                       # number of overall misses
system.l2.overall_misses::total                190896                       # number of overall misses
system.l2.demand_miss_latency::.switch_cpus.inst     75088000                       # number of demand (read+write) miss cycles
system.l2.demand_miss_latency::.switch_cpus.data  16091987000                       # number of demand (read+write) miss cycles
system.l2.demand_miss_latency::total      16167075000                       # number of demand (read+write) miss cycles
system.l2.overall_miss_latency::.switch_cpus.inst     75088000                       # number of overall miss cycles
system.l2.overall_miss_latency::.switch_cpus.data  16091987000                       # number of overall miss cycles
system.l2.overall_miss_latency::total     16167075000                       # number of overall miss cycles
system.l2.demand_accesses::.cpu.inst                2                       # number of demand (read+write) accesses
system.l2.demand_accesses::.cpu.data                3                       # number of demand (read+write) accesses
system.l2.demand_accesses::.switch_cpus.inst          932                       # number of demand (read+write) accesses
system.l2.demand_accesses::.switch_cpus.data       206463                       # number of demand (read+write) accesses
system.l2.demand_accesses::total               207400                       # number of demand (read+write) accesses
system.l2.overall_accesses::.cpu.inst               2                       # number of overall (read+write) accesses
system.l2.overall_accesses::.cpu.data               3                       # number of overall (read+write) accesses
system.l2.overall_accesses::.switch_cpus.inst          932                       # number of overall (read+write) accesses
system.l2.overall_accesses::.switch_cpus.data       206463                       # number of overall (read+write) accesses
system.l2.overall_accesses::total              207400                       # number of overall (read+write) accesses
system.l2.demand_miss_rate::.cpu.inst               1                       # miss rate for demand accesses
system.l2.demand_miss_rate::.cpu.data               1                       # miss rate for demand accesses
system.l2.demand_miss_rate::.switch_cpus.inst     0.945279                       # miss rate for demand accesses
system.l2.demand_miss_rate::.switch_cpus.data     0.920310                       # miss rate for demand accesses
system.l2.demand_miss_rate::total            0.920424                       # miss rate for demand accesses
system.l2.overall_miss_rate::.cpu.inst              1                       # miss rate for overall accesses
system.l2.overall_miss_rate::.cpu.data              1                       # miss rate for overall accesses
system.l2.overall_miss_rate::.switch_cpus.inst     0.945279                       # miss rate for overall accesses
system.l2.overall_miss_rate::.switch_cpus.data     0.920310                       # miss rate for overall accesses
system.l2.overall_miss_rate::total           0.920424                       # miss rate for overall accesses
system.l2.demand_avg_miss_latency::.switch_cpus.inst 85230.419977                       # average overall miss latency
system.l2.demand_avg_miss_latency::.switch_cpus.data 84690.211042                       # average overall miss latency
system.l2.demand_avg_miss_latency::total 84690.485919                       # average overall miss latency
system.l2.overall_avg_miss_latency::.switch_cpus.inst 85230.419977                       # average overall miss latency
system.l2.overall_avg_miss_latency::.switch_cpus.data 84690.211042                       # average overall miss latency
system.l2.overall_avg_miss_latency::total 84690.485919                       # average overall miss latency
system.l2.blocked_cycles::no_mshrs                  0                       # number of cycles access was blocked
system.l2.blocked_cycles::no_targets                0                       # number of cycles access was blocked
system.l2.blocked::no_mshrs                         0                       # number of cycles access was blocked
system.l2.blocked::no_targets                       0                       # number of cycles access was blocked
system.l2.avg_blocked_cycles::no_mshrs            nan                       # average number of cycles each access was blocked
system.l2.avg_blocked_cycles::no_targets          nan                       # average number of cycles each access was blocked
system.l2.writebacks::.writebacks               16465                       # number of writebacks
system.l2.writebacks::total                     16465                       # number of writebacks
system.l2.demand_mshr_misses::.switch_cpus.inst          881                       # number of demand (read+write) MSHR misses
system.l2.demand_mshr_misses::.switch_cpus.data       190010                       # number of demand (read+write) MSHR misses
system.l2.demand_mshr_misses::total            190891                       # number of demand (read+write) MSHR misses
system.l2.overall_mshr_misses::.switch_cpus.inst          881                       # number of overall MSHR misses
system.l2.overall_mshr_misses::.switch_cpus.data       190010                       # number of overall MSHR misses
system.l2.overall_mshr_misses::total           190891                       # number of overall MSHR misses
system.l2.demand_mshr_miss_latency::.switch_cpus.inst     66278000                       # number of demand (read+write) MSHR miss cycles
system.l2.demand_mshr_miss_latency::.switch_cpus.data  14191907000                       # number of demand (read+write) MSHR miss cycles
system.l2.demand_mshr_miss_latency::total  14258185000                       # number of demand (read+write) MSHR miss cycles
system.l2.overall_mshr_miss_latency::.switch_cpus.inst     66278000                       # number of overall MSHR miss cycles
system.l2.overall_mshr_miss_latency::.switch_cpus.data  14191907000                       # number of overall MSHR miss cycles
system.l2.overall_mshr_miss_latency::total  14258185000                       # number of overall MSHR miss cycles
system.l2.demand_mshr_miss_rate::.switch_cpus.inst     0.945279                       # mshr miss rate for demand accesses
system.l2.demand_mshr_miss_rate::.switch_cpus.data     0.920310                       # mshr miss rate for demand accesses
system.l2.demand_mshr_miss_rate::total       0.920400                       # mshr miss rate for demand accesses
system.l2.overall_mshr_miss_rate::.switch_cpus.inst     0.945279                       # mshr miss rate for overall accesses
system.l2.overall_mshr_miss_rate::.switch_cpus.data     0.920310                       # mshr miss rate for overall accesses
system.l2.overall_mshr_miss_rate::total      0.920400                       # mshr miss rate for overall accesses
system.l2.demand_avg_mshr_miss_latency::.switch_cpus.inst 75230.419977                       # average overall mshr miss latency
system.l2.demand_avg_mshr_miss_latency::.switch_cpus.data 74690.316299                       # average overall mshr miss latency
system.l2.demand_avg_mshr_miss_latency::total 74692.808985                       # average overall mshr miss latency
system.l2.overall_avg_mshr_miss_latency::.switch_cpus.inst 75230.419977                       # average overall mshr miss latency
system.l2.overall_avg_mshr_miss_latency::.switch_cpus.data 74690.316299                       # average overall mshr miss latency
system.l2.overall_avg_mshr_miss_latency::total 74692.808985                       # average overall mshr miss latency
system.l2.replacements                         206123                       # number of replacements
system.l2.WritebackDirty_hits::.writebacks        27207                       # number of WritebackDirty hits
system.l2.WritebackDirty_hits::total            27207                       # number of WritebackDirty hits
system.l2.WritebackDirty_accesses::.writebacks        27207                       # number of WritebackDirty accesses(hits+misses)
system.l2.WritebackDirty_accesses::total        27207                       # number of WritebackDirty accesses(hits+misses)
system.l2.WritebackClean_hits::.writebacks          473                       # number of WritebackClean hits
system.l2.WritebackClean_hits::total              473                       # number of WritebackClean hits
system.l2.WritebackClean_accesses::.writebacks          473                       # number of WritebackClean accesses(hits+misses)
system.l2.WritebackClean_accesses::total          473                       # number of WritebackClean accesses(hits+misses)
system.l2.CleanEvict_mshr_misses::.writebacks       163214                       # number of CleanEvict MSHR misses
system.l2.CleanEvict_mshr_misses::total        163214                       # number of CleanEvict MSHR misses
system.l2.CleanEvict_mshr_miss_rate::.writebacks          inf                       # mshr miss rate for CleanEvict accesses
system.l2.CleanEvict_mshr_miss_rate::total          inf                       # mshr miss rate for CleanEvict accesses
system.l2.ReadExReq_hits::.switch_cpus.data         1363                       # number of ReadExReq hits
system.l2.ReadExReq_hits::total                  1363                       # number of ReadExReq hits
system.l2.ReadExReq_misses::.switch_cpus.data         8732                       # number of ReadExReq misses
system.l2.ReadExReq_misses::total                8732                       # number of ReadExReq misses
system.l2.ReadExReq_miss_latency::.switch_cpus.data    728966500                       # number of ReadExReq miss cycles
system.l2.ReadExReq_miss_latency::total     728966500                       # number of ReadExReq miss cycles
system.l2.ReadExReq_accesses::.switch_cpus.data        10095                       # number of ReadExReq accesses(hits+misses)
system.l2.ReadExReq_accesses::total             10095                       # number of ReadExReq accesses(hits+misses)
system.l2.ReadExReq_miss_rate::.switch_cpus.data     0.864983                       # miss rate for ReadExReq accesses
system.l2.ReadExReq_miss_rate::total         0.864983                       # miss rate for ReadExReq accesses
system.l2.ReadExReq_avg_miss_latency::.switch_cpus.data 83482.191938                       # average ReadExReq miss latency
system.l2.ReadExReq_avg_miss_latency::total 83482.191938                       # average ReadExReq miss latency
system.l2.ReadExReq_mshr_misses::.switch_cpus.data         8732                       # number of ReadExReq MSHR misses
system.l2.ReadExReq_mshr_misses::total           8732                       # number of ReadExReq MSHR misses
system.l2.ReadExReq_mshr_miss_latency::.switch_cpus.data    641646500                       # number of ReadExReq MSHR miss cycles
system.l2.ReadExReq_mshr_miss_latency::total    641646500                       # number of ReadExReq MSHR miss cycles
system.l2.ReadExReq_mshr_miss_rate::.switch_cpus.data     0.864983                       # mshr miss rate for ReadExReq accesses
system.l2.ReadExReq_mshr_miss_rate::total     0.864983                       # mshr miss rate for ReadExReq accesses
system.l2.ReadExReq_avg_mshr_miss_latency::.switch_cpus.data 73482.191938                       # average ReadExReq mshr miss latency
system.l2.ReadExReq_avg_mshr_miss_latency::total 73482.191938                       # average ReadExReq mshr miss latency
system.l2.ReadCleanReq_hits::.switch_cpus.inst           51                       # number of ReadCleanReq hits
system.l2.ReadCleanReq_hits::total                 51                       # number of ReadCleanReq hits
system.l2.ReadCleanReq_misses::.cpu.inst            2                       # number of ReadCleanReq misses
system.l2.ReadCleanReq_misses::.switch_cpus.inst          881                       # number of ReadCleanReq misses
system.l2.ReadCleanReq_misses::total              883                       # number of ReadCleanReq misses
system.l2.ReadCleanReq_miss_latency::.switch_cpus.inst     75088000                       # number of ReadCleanReq miss cycles
system.l2.ReadCleanReq_miss_latency::total     75088000                       # number of ReadCleanReq miss cycles
system.l2.ReadCleanReq_accesses::.cpu.inst            2                       # number of ReadCleanReq accesses(hits+misses)
system.l2.ReadCleanReq_accesses::.switch_cpus.inst          932                       # number of ReadCleanReq accesses(hits+misses)
system.l2.ReadCleanReq_accesses::total            934                       # number of ReadCleanReq accesses(hits+misses)
system.l2.ReadCleanReq_miss_rate::.cpu.inst            1                       # miss rate for ReadCleanReq accesses
system.l2.ReadCleanReq_miss_rate::.switch_cpus.inst     0.945279                       # miss rate for ReadCleanReq accesses
system.l2.ReadCleanReq_miss_rate::total      0.945396                       # miss rate for ReadCleanReq accesses
system.l2.ReadCleanReq_avg_miss_latency::.switch_cpus.inst 85230.419977                       # average ReadCleanReq miss latency
[...]
system.cpu.icache.tags.data_accesses         14037449                       # Number of data accesses
system.cpu.dtb.walker.pwrStateResidencyTicks::UNDEFINED 359134177917500                       # Cumulative time (in ticks) in various power states
system.cpu.interrupts.clk_domain.clock           8000                       # Clock period in ticks
system.cpu.itb_walker_cache.pwrStateResidencyTicks::UNDEFINED 359134177917500                       # Cumulative time (in ticks) in various power states
system.cpu.itb_walker_cache.blocked_cycles::no_mshrs            0                       # number of cycles access was blocked
system.cpu.itb_walker_cache.blocked_cycles::no_targets            0                       # number of cycles access was blocked
system.cpu.itb_walker_cache.blocked::no_mshrs            0                       # number of cycles access was blocked
system.cpu.itb_walker_cache.blocked::no_targets            0                       # number of cycles access was blocked
system.cpu.itb_walker_cache.avg_blocked_cycles::no_mshrs          nan                       # average number of cycles each access was blocked
system.cpu.itb_walker_cache.avg_blocked_cycles::no_targets          nan                       # average number of cycles each access was blocked
system.cpu.itb_walker_cache.replacements            0                       # number of replacements
system.cpu.itb_walker_cache.tags.pwrStateResidencyTicks::UNDEFINED 359134177917500                       # Cumulative time (in ticks) in various power states
system.cpu.itb_walker_cache.tags.tagsinuse            0                       # Cycle average of tags in use
system.cpu.itb_walker_cache.tags.total_refs            0                       # Total number of references to valid blocks.
system.cpu.itb_walker_cache.tags.sampled_refs            0                       # Sample count of references to valid blocks.
system.cpu.itb_walker_cache.tags.avg_refs          nan                       # Average number of references to valid blocks.
system.cpu.itb_walker_cache.tags.warmup_cycle            0                       # Cycle when the warmup percentage was hit.
system.cpu.itb_walker_cache.tags.tag_accesses            0                       # Number of tag accesses
system.cpu.itb_walker_cache.tags.data_accesses            0                       # Number of data accesses
system.cpu.itb.walker.pwrStateResidencyTicks::UNDEFINED 359134177917500                       # Cumulative time (in ticks) in various power states
system.cpu.dtb_walker_cache.pwrStateResidencyTicks::UNDEFINED 359134177917500                       # Cumulative time (in ticks) in various power states
system.cpu.dtb_walker_cache.blocked_cycles::no_mshrs            0                       # number of cycles access was blocked
system.cpu.dtb_walker_cache.blocked_cycles::no_targets            0                       # number of cycles access was blocked
system.cpu.dtb_walker_cache.blocked::no_mshrs            0                       # number of cycles access was blocked
system.cpu.dtb_walker_cache.blocked::no_targets            0                       # number of cycles access was blocked
system.cpu.dtb_walker_cache.avg_blocked_cycles::no_mshrs          nan                       # average number of cycles each access was blocked
system.cpu.dtb_walker_cache.avg_blocked_cycles::no_targets          nan                       # average number of cycles each access was blocked
system.cpu.dtb_walker_cache.replacements            0                       # number of replacements
system.cpu.dtb_walker_cache.tags.pwrStateResidencyTicks::UNDEFINED 359134177917500                       # Cumulative time (in ticks) in various power states
system.cpu.dtb_walker_cache.tags.tagsinuse            0                       # Cycle average of tags in use
system.cpu.dtb_walker_cache.tags.total_refs            0                       # Total number of references to valid blocks.
system.cpu.dtb_walker_cache.tags.sampled_refs            0                       # Sample count of references to valid blocks.
system.cpu.dtb_walker_cache.tags.avg_refs          nan                       # Average number of references to valid blocks.
system.cpu.dtb_walker_cache.tags.warmup_cycle            0                       # Cycle when the warmup percentage was hit.
system.cpu.dtb_walker_cache.tags.tag_accesses            0                       # Number of tag accesses
system.cpu.dtb_walker_cache.tags.data_accesses            0                       # Number of data accesses
system.cpu.dcache.pwrStateResidencyTicks::UNDEFINED 359134177917500                       # Cumulative time (in ticks) in various power states
system.cpu.dcache.demand_hits::.cpu.data            1                       # number of demand (read+write) hits
system.cpu.dcache.demand_hits::.switch_cpus.data     10726457                       # number of demand (read+write) hits
system.cpu.dcache.demand_hits::total         10726458                       # number of demand (read+write) hits
system.cpu.dcache.overall_hits::.cpu.data            1                       # number of overall hits
system.cpu.dcache.overall_hits::.switch_cpus.data     10726457                       # number of overall hits
system.cpu.dcache.overall_hits::total        10726458                       # number of overall hits
system.cpu.dcache.demand_misses::.cpu.data            3                       # number of demand (read+write) misses
system.cpu.dcache.demand_misses::.switch_cpus.data      3241376                       # number of demand (read+write) misses
system.cpu.dcache.demand_misses::total        3241379                       # number of demand (read+write) misses
system.cpu.dcache.overall_misses::.cpu.data            3                       # number of overall misses
system.cpu.dcache.overall_misses::.switch_cpus.data      3241376                       # number of overall misses
system.cpu.dcache.overall_misses::total       3241379                       # number of overall misses
system.cpu.dcache.demand_miss_latency::.switch_cpus.data 225563490465                       # number of demand (read+write) miss cycles
system.cpu.dcache.demand_miss_latency::total 225563490465                       # number of demand (read+write) miss cycles
system.cpu.dcache.overall_miss_latency::.switch_cpus.data 225563490465                       # number of overall miss cycles
system.cpu.dcache.overall_miss_latency::total 225563490465                       # number of overall miss cycles
system.cpu.dcache.demand_accesses::.cpu.data            4                       # number of demand (read+write) accesses
system.cpu.dcache.demand_accesses::.switch_cpus.data     13967833                       # number of demand (read+write) accesses
system.cpu.dcache.demand_accesses::total     13967837                       # number of demand (read+write) accesses
system.cpu.dcache.overall_accesses::.cpu.data            4                       # number of overall (read+write) accesses
system.cpu.dcache.overall_accesses::.switch_cpus.data     13967833                       # number of overall (read+write) accesses
system.cpu.dcache.overall_accesses::total     13967837                       # number of overall (read+write) accesses
system.cpu.dcache.demand_miss_rate::.cpu.data     0.750000                       # miss rate for demand accesses
system.cpu.dcache.demand_miss_rate::.switch_cpus.data     0.232060                       # miss rate for demand accesses
system.cpu.dcache.demand_miss_rate::total     0.232060                       # miss rate for demand accesses
system.cpu.dcache.overall_miss_rate::.cpu.data     0.750000                       # miss rate for overall accesses
system.cpu.dcache.overall_miss_rate::.switch_cpus.data     0.232060                       # miss rate for overall accesses
system.cpu.dcache.overall_miss_rate::total     0.232060                       # miss rate for overall accesses
system.cpu.dcache.demand_avg_miss_latency::.switch_cpus.data 69588.807489                       # average overall miss latency
system.cpu.dcache.demand_avg_miss_latency::total 69588.743083                       # average overall miss latency
system.cpu.dcache.overall_avg_miss_latency::.switch_cpus.data 69588.807489                       # average overall miss latency
system.cpu.dcache.overall_avg_miss_latency::total 69588.743083                       # average overall miss latency
system.cpu.dcache.blocked_cycles::no_mshrs      5971966                       # number of cycles access was blocked
system.cpu.dcache.blocked_cycles::no_targets           20                       # number of cycles access was blocked
system.cpu.dcache.blocked::no_mshrs            134041                       # number of cycles access was blocked
system.cpu.dcache.blocked::no_targets               1                       # number of cycles access was blocked
system.cpu.dcache.avg_blocked_cycles::no_mshrs    44.553278                       # average number of cycles each access was blocked
system.cpu.dcache.avg_blocked_cycles::no_targets           20                       # average number of cycles each access was blocked
system.cpu.dcache.writebacks::.writebacks       136849                       # number of writebacks
system.cpu.dcache.writebacks::total            136849                       # number of writebacks
system.cpu.dcache.demand_mshr_hits::.switch_cpus.data      2408033                       # number of demand (read+write) MSHR hits
system.cpu.dcache.demand_mshr_hits::total      2408033                       # number of demand (read+write) MSHR hits
system.cpu.dcache.overall_mshr_hits::.switch_cpus.data      2408033                       # number of overall MSHR hits
system.cpu.dcache.overall_mshr_hits::total      2408033                       # number of overall MSHR hits
system.cpu.dcache.demand_mshr_misses::.switch_cpus.data       833343                       # number of demand (read+write) MSHR misses
system.cpu.dcache.demand_mshr_misses::total       833343                       # number of demand (read+write) MSHR misses
system.cpu.dcache.overall_mshr_misses::.switch_cpus.data       833343                       # number of overall MSHR misses
system.cpu.dcache.overall_mshr_misses::total       833343                       # number of overall MSHR misses
system.cpu.dcache.demand_mshr_miss_latency::.switch_cpus.data  65595160467                       # number of demand (read+write) MSHR miss cycles
system.cpu.dcache.demand_mshr_miss_latency::total  65595160467                       # number of demand (read+write) MSHR miss cycles
system.cpu.dcache.overall_mshr_miss_latency::.switch_cpus.data  65595160467                       # number of overall MSHR miss cycles
system.cpu.dcache.overall_mshr_miss_latency::total  65595160467                       # number of overall MSHR miss cycles
system.cpu.dcache.demand_mshr_miss_rate::.switch_cpus.data     0.059662                       # mshr miss rate for demand accesses
system.cpu.dcache.demand_mshr_miss_rate::total     0.059662                       # mshr miss rate for demand accesses
system.cpu.dcache.overall_mshr_miss_rate::.switch_cpus.data     0.059662                       # mshr miss rate for overall accesses
system.cpu.dcache.overall_mshr_miss_rate::total     0.059662                       # mshr miss rate for overall accesses
system.cpu.dcache.demand_avg_mshr_miss_latency::.switch_cpus.data 78713.279486                       # average overall mshr miss latency
system.cpu.dcache.demand_avg_mshr_miss_latency::total 78713.279486                       # average overall mshr miss latency
system.cpu.dcache.overall_avg_mshr_miss_latency::.switch_cpus.data 78713.279486                       # average overall mshr miss latency
system.cpu.dcache.overall_avg_mshr_miss_latency::total 78713.279486                       # average overall mshr miss latency
system.cpu.dcache.replacements                 832321                       # number of replacements
system.cpu.dcache.ReadReq_hits::.cpu.data            1                       # number of ReadReq hits
system.cpu.dcache.ReadReq_hits::.switch_cpus.data      9388609                       # number of ReadReq hits
system.cpu.dcache.ReadReq_hits::total         9388610                       # number of ReadReq hits
system.cpu.dcache.ReadReq_misses::.cpu.data            3                       # number of ReadReq misses
system.cpu.dcache.ReadReq_misses::.switch_cpus.data      3199951                       # number of ReadReq misses
system.cpu.dcache.ReadReq_misses::total       3199954                       # number of ReadReq misses
system.cpu.dcache.ReadReq_miss_latency::.switch_cpus.data 222483245500                       # number of ReadReq miss cycles
system.cpu.dcache.ReadReq_miss_latency::total 222483245500                       # number of ReadReq miss cycles
system.cpu.dcache.ReadReq_accesses::.cpu.data            4                       # number of ReadReq accesses(hits+misses)
system.cpu.dcache.ReadReq_accesses::.switch_cpus.data     12588560                       # number of ReadReq accesses(hits+misses)
system.cpu.dcache.ReadReq_accesses::total     12588564                       # number of ReadReq accesses(hits+misses)
system.cpu.dcache.ReadReq_miss_rate::.cpu.data     0.750000                       # miss rate for ReadReq accesses
system.cpu.dcache.ReadReq_miss_rate::.switch_cpus.data     0.254195                       # miss rate for ReadReq accesses
system.cpu.dcache.ReadReq_miss_rate::total     0.254195                       # miss rate for ReadReq accesses
system.cpu.dcache.ReadReq_avg_miss_latency::.switch_cpus.data 69527.078852                       # average ReadReq miss latency
system.cpu.dcache.ReadReq_avg_miss_latency::total 69527.013670                       # average ReadReq miss latency
system.cpu.dcache.ReadReq_mshr_hits::.switch_cpus.data      2407709                       # number of ReadReq MSHR hits
system.cpu.dcache.ReadReq_mshr_hits::total      2407709                       # number of ReadReq MSHR hits
system.cpu.dcache.ReadReq_mshr_misses::.switch_cpus.data       792242                       # number of ReadReq MSHR misses
system.cpu.dcache.ReadReq_mshr_misses::total       792242                       # number of ReadReq MSHR misses
system.cpu.dcache.ReadReq_mshr_miss_latency::.switch_cpus.data  62575463500                       # number of ReadReq MSHR miss cycles
system.cpu.dcache.ReadReq_mshr_miss_latency::total  62575463500                       # number of ReadReq MSHR miss cycles
system.cpu.dcache.ReadReq_mshr_miss_rate::.switch_cpus.data     0.062933                       # mshr miss rate for ReadReq accesses
system.cpu.dcache.ReadReq_mshr_miss_rate::total     0.062933                       # mshr miss rate for ReadReq accesses
system.cpu.dcache.ReadReq_avg_mshr_miss_latency::.switch_cpus.data 78985.289217                       # average ReadReq mshr miss latency
system.cpu.dcache.ReadReq_avg_mshr_miss_latency::total 78985.289217                       # average ReadReq mshr miss latency
system.cpu.dcache.WriteReq_hits::.switch_cpus.data      1337848                       # number of WriteReq hits
system.cpu.dcache.WriteReq_hits::total        1337848                       # number of WriteReq hits
system.cpu.dcache.WriteReq_misses::.switch_cpus.data        41425                       # number of WriteReq misses
system.cpu.dcache.WriteReq_misses::total        41425                       # number of WriteReq misses
system.cpu.dcache.WriteReq_miss_latency::.switch_cpus.data   3080244965                       # number of WriteReq miss cycles
system.cpu.dcache.WriteReq_miss_latency::total   3080244965                       # number of WriteReq miss cycles
system.cpu.dcache.WriteReq_accesses::.switch_cpus.data      1379273                       # number of WriteReq accesses(hits+misses)
system.cpu.dcache.WriteReq_accesses::total      1379273                       # number of WriteReq accesses(hits+misses)
system.cpu.dcache.WriteReq_miss_rate::.switch_cpus.data     0.030034                       # miss rate for WriteReq accesses
system.cpu.dcache.WriteReq_miss_rate::total     0.030034                       # miss rate for WriteReq accesses
system.cpu.dcache.WriteReq_avg_miss_latency::.switch_cpus.data 74357.150634                       # average WriteReq miss latency
system.cpu.dcache.WriteReq_avg_miss_latency::total 74357.150634                       # average WriteReq miss latency
system.cpu.dcache.WriteReq_mshr_hits::.switch_cpus.data          324                       # number of WriteReq MSHR hits
system.cpu.dcache.WriteReq_mshr_hits::total          324                       # number of WriteReq MSHR hits
system.cpu.dcache.WriteReq_mshr_misses::.switch_cpus.data        41101                       # number of WriteReq MSHR misses
system.cpu.dcache.WriteReq_mshr_misses::total        41101                       # number of WriteReq MSHR misses
system.cpu.dcache.WriteReq_mshr_miss_latency::.switch_cpus.data   3019696967                       # number of WriteReq MSHR miss cycles
system.cpu.dcache.WriteReq_mshr_miss_latency::total   3019696967                       # number of WriteReq MSHR miss cycles
system.cpu.dcache.WriteReq_mshr_miss_rate::.switch_cpus.data     0.029799                       # mshr miss rate for WriteReq accesses
system.cpu.dcache.WriteReq_mshr_miss_rate::total     0.029799                       # mshr miss rate for WriteReq accesses
system.cpu.dcache.WriteReq_avg_mshr_miss_latency::.switch_cpus.data 73470.158074                       # average WriteReq mshr miss latency
system.cpu.dcache.WriteReq_avg_mshr_miss_latency::total 73470.158074                       # average WriteReq mshr miss latency
system.cpu.dcache.tags.pwrStateResidencyTicks::UNDEFINED 359134177917500                       # Cumulative time (in ticks) in various power states
system.cpu.dcache.tags.tagsinuse             0.113031                       # Cycle average of tags in use
system.cpu.dcache.tags.total_refs            11559803                       # Total number of references to valid blocks.
system.cpu.dcache.tags.sampled_refs            833345                       # Sample count of references to valid blocks.
system.cpu.dcache.tags.avg_refs             13.871569                       # Average number of references to valid blocks.
system.cpu.dcache.tags.warmup_cycle      359094507845000                       # Cycle when the warmup percentage was hit.
system.cpu.dcache.tags.occ_blocks::.cpu.data     0.000002                       # Average occupied blocks per requestor
system.cpu.dcache.tags.occ_blocks::.switch_cpus.data     0.113030                       # Average occupied blocks per requestor
system.cpu.dcache.tags.occ_percent::.cpu.data     0.000000                       # Average percentage of cache occupancy
system.cpu.dcache.tags.occ_percent::.switch_cpus.data     0.000110                       # Average percentage of cache occupancy
system.cpu.dcache.tags.occ_percent::total     0.000110                       # Average percentage of cache occupancy
system.cpu.dcache.tags.occ_task_id_blocks::1024         1024                       # Occupied blocks per task id
system.cpu.dcache.tags.age_task_id_blocks_1024::0          231                       # Occupied blocks per task id
system.cpu.dcache.tags.age_task_id_blocks_1024::1          698                       # Occupied blocks per task id
system.cpu.dcache.tags.age_task_id_blocks_1024::2           95                       # Occupied blocks per task id
system.cpu.dcache.tags.occ_task_id_percent::1024            1                       # Percentage of cache occupancy per task id
system.cpu.dcache.tags.tag_accesses          28769019                       # Number of tag accesses
system.cpu.dcache.tags.data_accesses         28769019                       # Number of data accesses

---------- End Simulation Statistics   ----------
