
---------- Begin Simulation Statistics ----------
final_tick                               270776456906000                       # Number of ticks from beginning of simulation (restored from checkpoints and never reset)
host_inst_rate                                  46093                       # Simulator instruction rate (inst/s)
host_mem_usage                                 804420                       # Number of bytes of host memory used
host_op_rate                                    76973                       # Simulator op (including micro ops) rate (op/s)
host_seconds                                   216.95                       # Real time elapsed on the host
host_tick_rate                               42298674                       # Simulator tick rate (ticks/s)
sim_freq                                 1000000000000                       # Frequency of simulated ticks
sim_insts                                    10000010                       # Number of instructions simulated
sim_ops                                      16699646                       # Number of ops (including micro ops) simulated
sim_seconds                                  0.009177                       # Number of seconds simulated
sim_ticks                                  9176852250                       # Number of ticks simulated
system.cpu.Branches                                 1                       # Number of branches fetched
system.cpu.committedInsts                           7                       # Number of instructions committed
system.cpu.committedOps                            18                       # Number of ops (including micro ops) committed
system.cpu.dtb.rdAccesses                           5                       # TLB accesses on read requests
system.cpu.dtb.rdMisses                             0                       # TLB misses on read requests
system.cpu.dtb.wrAccesses                           1                       # TLB accesses on write requests
system.cpu.dtb.wrMisses                             0                       # TLB misses on write requests
system.cpu.idle_fraction                            0                       # Percentage of idle cycles
system.cpu.itb.rdAccesses                           0                       # TLB accesses on read requests
system.cpu.itb.rdMisses                             0                       # TLB misses on read requests
system.cpu.itb.wrAccesses                           9                       # TLB accesses on write requests
system.cpu.itb.wrMisses                             0                       # TLB misses on write requests
system.cpu.not_idle_fraction                        1                       # Percentage of non-idle cycles
system.cpu.numCycles                               20                       # number of cpu cycles simulated
system.cpu.numWorkItemsCompleted                    0                       # number of work items this cpu completed
system.cpu.numWorkItemsStarted                      0                       # number of work items this cpu started
system.cpu.num_busy_cycles                         20                       # Number of busy cycles
system.cpu.num_cc_register_writes                   2                       # number of times the CC registers were written
system.cpu.num_conditional_control_insts            0                       # number of instructions that are conditional controls
system.cpu.num_fp_alu_accesses                      0                       # Number of float alu accesses
system.cpu.num_fp_insts                             0                       # number of float instructions
system.cpu.num_fp_register_reads                    0                       # number of times the floating registers were read
system.cpu.num_fp_register_writes                   0                       # number of times the floating registers were written
system.cpu.num_func_calls                           1                       # number of times a function call or return occured
system.cpu.num_idle_cycles                          0                       # Number of idle cycles
system.cpu.num_int_alu_accesses                    18                       # Number of integer alu accesses
system.cpu.num_int_insts                           18                       # number of integer instructions
system.cpu.num_int_register_reads                  40                       # number of times the integer registers were read
system.cpu.num_int_register_writes                 16                       # number of times the integer registers were written
system.cpu.num_load_insts                           5                       # Number of load instructions
system.cpu.num_mem_refs                             6                       # number of memory refs
system.cpu.num_store_insts                          1                       # Number of store instructions
system.cpu.num_vec_alu_accesses                     0                       # Number of vector alu accesses
system.cpu.num_vec_insts                            0                       # number of vector instructions
system.cpu.num_vec_register_reads                   0                       # number of times the vector registers were read
system.cpu.num_vec_register_writes                  0                       # number of times the vector registers were written
system.cpu.op_class::No_OpClass                     0      0.00%      0.00% # Class of executed instruction
system.cpu.op_class::IntAlu                        12     66.67%     66.67% # Class of executed instruction
system.cpu.op_class::IntMult                        0      0.00%     66.67% # Class of executed instruction
system.cpu.op_class::IntDiv                         0      0.00%     66.67% # Class of executed instruction
system.cpu.op_class::FloatAdd                       0      0.00%     66.67% # Class of executed instruction
system.cpu.op_class::FloatCmp                       0      0.00%     66.67% # Class of executed instruction
system.cpu.op_class::FloatCvt                       0      0.00%     66.67% # Class of executed instruction
system.cpu.op_class::FloatMult                      0      0.00%     66.67% # Class of executed instruction
system.cpu.op_class::FloatMultAcc                   0      0.00%     66.67% # Class of executed instruction
system.cpu.op_class::FloatDiv                       0      0.00%     66.67% # Class of executed instruction
system.cpu.op_class::FloatMisc                      0      0.00%     66.67% # Class of executed instruction
system.cpu.op_class::FloatSqrt                      0      0.00%     66.67% # Class of executed instruction
system.cpu.op_class::SimdAdd                        0      0.00%     66.67% # Class of executed instruction
system.cpu.op_class::SimdAddAcc                     0      0.00%     66.67% # Class of executed instruction
system.cpu.op_class::SimdAlu                        0      0.00%     66.67% # Class of executed instruction
system.cpu.op_class::SimdCmp                        0      0.00%     66.67% # Class of executed instruction
system.cpu.op_class::SimdCvt                        0      0.00%     66.67% # Class of executed instruction
system.cpu.op_class::SimdMisc                       0      0.00%     66.67% # Class of executed instruction
system.cpu.op_class::SimdMult                       0      0.00%     66.67% # Class of executed instruction
system.cpu.op_class::SimdMultAcc                    0      0.00%     66.67% # Class of executed instruction
system.cpu.op_class::SimdShift                      0      0.00%     66.67% # Class of executed instruction
system.cpu.op_class::SimdShiftAcc                   0      0.00%     66.67% # Class of executed instruction
system.cpu.op_class::SimdDiv                        0      0.00%     66.67% # Class of executed instruction
system.cpu.op_class::SimdSqrt                       0      0.00%     66.67% # Class of executed instruction
system.cpu.op_class::SimdFloatAdd                   0      0.00%     66.67% # Class of executed instruction
system.cpu.op_class::SimdFloatAlu                   0      0.00%     66.67% # Class of executed instruction
system.cpu.op_class::SimdFloatCmp                   0      0.00%     66.67% # Class of executed instruction
system.cpu.op_class::SimdFloatCvt                   0      0.00%     66.67% # Class of executed instruction
system.cpu.op_class::SimdFloatDiv                   0      0.00%     66.67% # Class of executed instruction
system.cpu.op_class::SimdFloatMisc                  0      0.00%     66.67% # Class of executed instruction
system.cpu.op_class::SimdFloatMult                  0      0.00%     66.67% # Class of executed instruction
system.cpu.op_class::SimdFloatMultAcc               0      0.00%     66.67% # Class of executed instruction
system.cpu.op_class::SimdFloatSqrt                  0      0.00%     66.67% # Class of executed instruction
system.cpu.op_class::SimdReduceAdd                  0      0.00%     66.67% # Class of executed instruction
system.cpu.op_class::SimdReduceAlu                  0      0.00%     66.67% # Class of executed instruction
system.cpu.op_class::SimdReduceCmp                  0      0.00%     66.67% # Class of executed instruction
system.cpu.op_class::SimdFloatReduceAdd             0      0.00%     66.67% # Class of executed instruction
system.cpu.op_class::SimdFloatReduceCmp             0      0.00%     66.67% # Class of executed instruction
system.cpu.op_class::SimdAes                        0      0.00%     66.67% # Class of executed instruction
system.cpu.op_class::SimdAesMix                     0      0.00%     66.67% # Class of executed instruction
system.cpu.op_class::SimdSha1Hash                   0      0.00%     66.67% # Class of executed instruction
system.cpu.op_class::SimdSha1Hash2                  0      0.00%     66.67% # Class of executed instruction
system.cpu.op_class::SimdSha256Hash                 0      0.00%     66.67% # Class of executed instruction
system.cpu.op_class::SimdSha256Hash2                0      0.00%     66.67% # Class of executed instruction
system.cpu.op_class::SimdShaSigma2                  0      0.00%     66.67% # Class of executed instruction
system.cpu.op_class::SimdShaSigma3                  0      0.00%     66.67% # Class of executed instruction
system.cpu.op_class::SimdPredAlu                    0      0.00%     66.67% # Class of executed instruction
system.cpu.op_class::MemRead                        5     27.78%     94.44% # Class of executed instruction
system.cpu.op_class::MemWrite                       1      5.56%    100.00% # Class of executed instruction
system.cpu.op_class::FloatMemRead                   0      0.00%    100.00% # Class of executed instruction
system.cpu.op_class::FloatMemWrite                  0      0.00%    100.00% # Class of executed instruction
system.cpu.op_class::IprAccess                      0      0.00%    100.00% # Class of executed instruction
system.cpu.op_class::InstPrefetch                   0      0.00%    100.00% # Class of executed instruction
system.cpu.op_class::total                         18                       # Class of executed instruction
system.cpu.workload.numSyscalls                     0                       # Number of system calls
system.membus.snoop_filter.hit_multi_requests            0                       # Number of requests hitting in the snoop filter with multiple (>1) holders of the requested data.
system.membus.snoop_filter.hit_multi_snoops            0                       # Number of snoops hitting in the snoop filter with multiple (>1) holders of the requested data.
system.membus.snoop_filter.hit_single_requests       163669                       # Number of requests hitting in the snoop filter with a single holder of the requested data.
system.membus.snoop_filter.hit_single_snoops            0                       # Number of snoops hitting in the snoop filter with a single holder of the requested data.
system.membus.snoop_filter.tot_requests        330418                       # Total number of requests made to the snoop filter.
system.membus.snoop_filter.tot_snoops               0                       # Total number of snoops made to the snoop filter.
system.switch_cpus.branchPred.BTBCorrect            0                       # Number of correct BTB predictions (this stat may not work properly.
system.switch_cpus.branchPred.BTBHitPct      0.000000                       # BTB Hit Percentage
system.switch_cpus.branchPred.BTBHits               0                       # Number of BTB hits
system.switch_cpus.branchPred.BTBLookups      1220458                       # Number of BTB lookups
system.switch_cpus.branchPred.RASInCorrect           33                       # Number of incorrect RAS predictions.
system.switch_cpus.branchPred.condIncorrect        59800                       # Number of conditional branches incorrect
system.switch_cpus.branchPred.condPredicted      1257323                       # Number of conditional branches predicted
system.switch_cpus.branchPred.indirectHits       941765                       # Number of indirect target hits.
system.switch_cpus.branchPred.indirectLookups      1220458                       # Number of indirect predictor lookups.
system.switch_cpus.branchPred.indirectMisses       278693                       # Number of indirect misses.
system.switch_cpus.branchPred.lookups         1327748                       # Number of BP lookups
system.switch_cpus.branchPred.usedRAS           35248                       # Number of times the RAS was used to get a target.
system.switch_cpus.branchPredindirectMispredicted        12211                       # Number of mispredicted indirect branches.
system.switch_cpus.cc_regfile_reads           6150024                       # number of cc regfile reads
system.switch_cpus.cc_regfile_writes          4090941                       # number of cc regfile writes
system.switch_cpus.commit.amos                      0                       # Number of atomic instructions committed
system.switch_cpus.commit.branchMispredicts        59870                       # The number of times a branch was mispredicted
system.switch_cpus.commit.branches            1012410                       # Number of branches committed
system.switch_cpus.commit.bw_lim_events       1373319                       # number cycles where commit BW limit reached
system.switch_cpus.commit.commitSquashedInsts      2198912                       # The number of squashed insts skipped by commit
system.switch_cpus.commit.committedInsts     10000003                       # Number of instructions committed
system.switch_cpus.commit.committedOps       16699628                       # Number of ops (including micro ops) committed
system.switch_cpus.commit.committed_per_cycle::samples     18012291                       # Number of insts commited each cycle
system.switch_cpus.commit.committed_per_cycle::mean     0.927124                       # Number of insts commited each cycle
system.switch_cpus.commit.committed_per_cycle::stdev     2.290588                       # Number of insts commited each cycle
system.switch_cpus.commit.committed_per_cycle::underflows            0      0.00%      0.00% # Number of insts commited each cycle
system.switch_cpus.commit.committed_per_cycle::0     14528176     80.66%     80.66% # Number of insts commited each cycle
system.switch_cpus.commit.committed_per_cycle::1       946729      5.26%     85.91% # Number of insts commited each cycle
system.switch_cpus.commit.committed_per_cycle::2       119692      0.66%     86.58% # Number of insts commited each cycle
system.switch_cpus.commit.committed_per_cycle::3       190860      1.06%     87.64% # Number of insts commited each cycle
system.switch_cpus.commit.committed_per_cycle::4       480826      2.67%     90.31% # Number of insts commited each cycle
system.switch_cpus.commit.committed_per_cycle::5       254722      1.41%     91.72% # Number of insts commited each cycle
system.switch_cpus.commit.committed_per_cycle::6        68300      0.38%     92.10% # Number of insts commited each cycle
system.switch_cpus.commit.committed_per_cycle::7        49667      0.28%     92.38% # Number of insts commited each cycle
system.switch_cpus.commit.committed_per_cycle::8      1373319      7.62%    100.00% # Number of insts commited each cycle
system.switch_cpus.commit.committed_per_cycle::overflows            0      0.00%    100.00% # Number of insts commited each cycle
system.switch_cpus.commit.committed_per_cycle::min_value            0                       # Number of insts commited each cycle
system.switch_cpus.commit.committed_per_cycle::max_value            8                       # Number of insts commited each cycle
system.switch_cpus.commit.committed_per_cycle::total     18012291                       # Number of insts commited each cycle
system.switch_cpus.commit.fp_insts            9250008                       # Number of committed floating point instructions.
system.switch_cpus.commit.function_calls        18108                       # Number of function calls committed.
system.switch_cpus.commit.int_insts           9386149                       # Number of committed integer instructions.
system.switch_cpus.commit.loads               2651089                       # Number of loads committed
system.switch_cpus.commit.membars                   0                       # Number of memory barriers committed
system.switch_cpus.commit.op_class_0::No_OpClass        28068      0.17%      0.17% # Class of committed instruction
system.switch_cpus.commit.op_class_0::IntAlu      7077496     42.38%     42.55% # Class of committed instruction
system.switch_cpus.commit.op_class_0::IntMult           15      0.00%     42.55% # Class of committed instruction
system.switch_cpus.commit.op_class_0::IntDiv           77      0.00%     42.55% # Class of committed instruction
system.switch_cpus.commit.op_class_0::FloatAdd       834706      5.00%     47.55% # Class of committed instruction
system.switch_cpus.commit.op_class_0::FloatCmp            0      0.00%     47.55% # Class of committed instruction
system.switch_cpus.commit.op_class_0::FloatCvt            0      0.00%     47.55% # Class of committed instruction
system.switch_cpus.commit.op_class_0::FloatMult            0      0.00%     47.55% # Class of committed instruction
system.switch_cpus.commit.op_class_0::FloatMultAcc            0      0.00%     47.55% # Class of committed instruction
system.switch_cpus.commit.op_class_0::FloatDiv            0      0.00%     47.55% # Class of committed instruction
system.switch_cpus.commit.op_class_0::FloatMisc            0      0.00%     47.55% # Class of committed instruction
system.switch_cpus.commit.op_class_0::FloatSqrt            0      0.00%     47.55% # Class of committed instruction
system.switch_cpus.commit.op_class_0::SimdAdd            0      0.00%     47.55% # Class of committed instruction
system.switch_cpus.commit.op_class_0::SimdAddAcc            0      0.00%     47.55% # Class of committed instruction
system.switch_cpus.commit.op_class_0::SimdAlu      1472440      8.82%     56.37% # Class of committed instruction
system.switch_cpus.commit.op_class_0::SimdCmp            0      0.00%     56.37% # Class of committed instruction
system.switch_cpus.commit.op_class_0::SimdCvt            6      0.00%     56.37% # Class of committed instruction
system.switch_cpus.commit.op_class_0::SimdMisc        40222      0.24%     56.61% # Class of committed instruction
system.switch_cpus.commit.op_class_0::SimdMult            0      0.00%     56.61% # Class of committed instruction
system.switch_cpus.commit.op_class_0::SimdMultAcc            0      0.00%     56.61% # Class of committed instruction
system.switch_cpus.commit.op_class_0::SimdShift            0      0.00%     56.61% # Class of committed instruction
system.switch_cpus.commit.op_class_0::SimdShiftAcc            0      0.00%     56.61% # Class of committed instruction
system.switch_cpus.commit.op_class_0::SimdDiv            0      0.00%     56.61% # Class of committed instruction
system.switch_cpus.commit.op_class_0::SimdSqrt            0      0.00%     56.61% # Class of committed instruction
system.switch_cpus.commit.op_class_0::SimdFloatAdd      1392117      8.34%     64.94% # Class of committed instruction
system.switch_cpus.commit.op_class_0::SimdFloatAlu            0      0.00%     64.94% # Class of committed instruction
system.switch_cpus.commit.op_class_0::SimdFloatCmp        20118      0.12%     65.06% # Class of committed instruction
system.switch_cpus.commit.op_class_0::SimdFloatCvt      1492478      8.94%     74.00% # Class of committed instruction
system.switch_cpus.commit.op_class_0::SimdFloatDiv            0      0.00%     74.00% # Class of committed instruction
system.switch_cpus.commit.op_class_0::SimdFloatMisc            0      0.00%     74.00% # Class of committed instruction
system.switch_cpus.commit.op_class_0::SimdFloatMult      1432276      8.58%     82.58% # Class of committed instruction
system.switch_cpus.commit.op_class_0::SimdFloatMultAcc            0      0.00%     82.58% # Class of committed instruction
system.switch_cpus.commit.op_class_0::SimdFloatSqrt            0      0.00%     82.58% # Class of committed instruction
system.switch_cpus.commit.op_class_0::SimdReduceAdd            0      0.00%     82.58% # Class of committed instruction
system.switch_cpus.commit.op_class_0::SimdReduceAlu            0      0.00%     82.58% # Class of committed instruction
system.switch_cpus.commit.op_class_0::SimdReduceCmp            0      0.00%     82.58% # Class of committed instruction
system.switch_cpus.commit.op_class_0::SimdFloatReduceAdd            0      0.00%     82.58% # Class of committed instruction
system.switch_cpus.commit.op_class_0::SimdFloatReduceCmp            0      0.00%     82.58% # Class of committed instruction
system.switch_cpus.commit.op_class_0::SimdAes            0      0.00%     82.58% # Class of committed instruction
system.switch_cpus.commit.op_class_0::SimdAesMix            0      0.00%     82.58% # Class of committed instruction
system.switch_cpus.commit.op_class_0::SimdSha1Hash            0      0.00%     82.58% # Class of committed instruction
system.switch_cpus.commit.op_class_0::SimdSha1Hash2            0      0.00%     82.58% # Class of committed instruction
system.switch_cpus.commit.op_class_0::SimdSha256Hash            0      0.00%     82.58% # Class of committed instruction
system.switch_cpus.commit.op_class_0::SimdSha256Hash2            0      0.00%     82.58% # Class of committed instruction
system.switch_cpus.commit.op_class_0::SimdShaSigma2            0      0.00%     82.58% # Class of committed instruction
system.switch_cpus.commit.op_class_0::SimdShaSigma3            0      0.00%     82.58% # Class of committed instruction
system.switch_cpus.commit.op_class_0::SimdPredAlu            0      0.00%     82.58% # Class of committed instruction
system.switch_cpus.commit.op_class_0::MemRead       789848      4.73%     87.31% # Class of committed instruction
system.switch_cpus.commit.op_class_0::MemWrite       194915      1.17%     88.47% # Class of committed instruction
system.switch_cpus.commit.op_class_0::FloatMemRead      1861241     11.15%     99.62% # Class of committed instruction
system.switch_cpus.commit.op_class_0::FloatMemWrite        63605      0.38%    100.00% # Class of committed instruction
system.switch_cpus.commit.op_class_0::IprAccess            0      0.00%    100.00% # Class of committed instruction
system.switch_cpus.commit.op_class_0::InstPrefetch            0      0.00%    100.00% # Class of committed instruction
system.switch_cpus.commit.op_class_0::total     16699628                       # Class of committed instruction
system.switch_cpus.commit.refs                2909609                       # Number of memory references committed
system.switch_cpus.commit.swp_count                 0                       # Number of s/w prefetches committed
system.switch_cpus.commit.vec_insts                 0                       # Number of committed Vector instructions.
system.switch_cpus.committedInsts            10000003                       # Number of Instructions Simulated
system.switch_cpus.committedOps              16699628                       # Number of Ops (including micro ops) Simulated
system.switch_cpus.cpi                       1.835368                       # CPI: Cycles Per Instruction
system.switch_cpus.cpi_total                 1.835368                       # CPI: Total CPI of All Threads
system.switch_cpus.decode.BlockedCycles      14490243                       # Number of cycles decode is blocked
system.switch_cpus.decode.DecodedInsts       19627438                       # Number of instructions handled by decode
system.switch_cpus.decode.IdleCycles          1007223                       # Number of cycles decode is idle
system.switch_cpus.decode.RunCycles           1885625                       # Number of cycles decode is running
system.switch_cpus.decode.SquashCycles          60068                       # Number of cycles decode is squashing
system.switch_cpus.decode.UnblockCycles        879904                       # Number of cycles decode is unblocking
system.switch_cpus.dtb.rdAccesses             3017332                       # TLB accesses on read requests
system.switch_cpus.dtb.rdMisses                 10924                       # TLB misses on read requests
system.switch_cpus.dtb.wrAccesses              287963                       # TLB accesses on write requests
system.switch_cpus.dtb.wrMisses                   590                       # TLB misses on write requests
system.switch_cpus.fetch.Branches             1327748                       # Number of branches that fetch encountered
system.switch_cpus.fetch.CacheLines           1491953                       # Number of cache lines fetched
system.switch_cpus.fetch.Cycles              16721931                       # Number of cycles fetch has run and was not squashing or blocked
system.switch_cpus.fetch.IcacheSquashes         12147                       # Number of outstanding Icache misses that were squashed
system.switch_cpus.fetch.Insts               12387098                       # Number of instructions fetch has processed
system.switch_cpus.fetch.MiscStallCycles           65                       # Number of cycles fetch has spent waiting on interrupts, or bad addresses, or out of MSHRs
system.switch_cpus.fetch.PendingTrapStallCycles         1674                       # Number of stall cycles due to pending traps
system.switch_cpus.fetch.SquashCycles          120136                       # Number of cycles fetch has spent squashing
system.switch_cpus.fetch.branchRate          0.072342                       # Number of branch fetches per cycle
system.switch_cpus.fetch.icacheStallCycles      1539326                       # Number of cycles fetch is stalled on an Icache miss
system.switch_cpus.fetch.predictedBranches       977013                       # Number of branches that fetch has predicted taken
system.switch_cpus.fetch.rate                0.674911                       # Number of inst fetches per cycle
system.switch_cpus.fetch.rateDist::samples     18323064                       # Number of instructions fetched each cycle (Total)
system.switch_cpus.fetch.rateDist::mean      1.133067                       # Number of instructions fetched each cycle (Total)
system.switch_cpus.fetch.rateDist::stdev     2.554332                       # Number of instructions fetched each cycle (Total)
system.switch_cpus.fetch.rateDist::underflows            0      0.00%      0.00% # Number of instructions fetched each cycle (Total)
system.switch_cpus.fetch.rateDist::0         14789350     80.71%     80.71% # Number of instructions fetched each cycle (Total)
system.switch_cpus.fetch.rateDist::1           312063      1.70%     82.42% # Number of instructions fetched each cycle (Total)
system.switch_cpus.fetch.rateDist::2           188260      1.03%     83.44% # Number of instructions fetched each cycle (Total)
system.switch_cpus.fetch.rateDist::3           214196      1.17%     84.61% # Number of instructions fetched each cycle (Total)
system.switch_cpus.fetch.rateDist::4           331305      1.81%     86.42% # Number of instructions fetched each cycle (Total)
system.switch_cpus.fetch.rateDist::5           277892      1.52%     87.94% # Number of instructions fetched each cycle (Total)
system.switch_cpus.fetch.rateDist::6           431233      2.35%     90.29% # Number of instructions fetched each cycle (Total)
system.switch_cpus.fetch.rateDist::7           102111      0.56%     90.85% # Number of instructions fetched each cycle (Total)
system.switch_cpus.fetch.rateDist::8          1676654      9.15%    100.00% # Number of instructions fetched each cycle (Total)
system.switch_cpus.fetch.rateDist::overflows            0      0.00%    100.00% # Number of instructions fetched each cycle (Total)
system.switch_cpus.fetch.rateDist::min_value            0                       # Number of instructions fetched each cycle (Total)
system.switch_cpus.fetch.rateDist::max_value            8                       # Number of instructions fetched each cycle (Total)
system.switch_cpus.fetch.rateDist::total     18323064                       # Number of instructions fetched each cycle (Total)
system.switch_cpus.fp_regfile_reads          16021169                       # number of floating regfile reads
system.switch_cpus.fp_regfile_writes          9302571                       # number of floating regfile writes
system.switch_cpus.idleCycles                   30620                       # Total number of cycles that the CPU has spent unscheduled due to idling
system.switch_cpus.iew.branchMispredicts        67043                       # Number of branch mispredicts detected at execute
system.switch_cpus.iew.exec_branches          1089194                       # Number of branches executed
system.switch_cpus.iew.exec_nop                     0                       # number of nop insts executed
system.switch_cpus.iew.exec_rate             0.988367                       # Inst execution rate
system.switch_cpus.iew.exec_refs              3337543                       # number of memory reference insts executed
system.switch_cpus.iew.exec_stores             287953                       # Number of stores executed
system.switch_cpus.iew.exec_swp                     0                       # number of swp insts executed
system.switch_cpus.iew.iewBlockCycles         7566086                       # Number of cycles IEW is blocking
system.switch_cpus.iew.iewDispLoadInsts       3068487                       # Number of dispatched load instructions
system.switch_cpus.iew.iewDispNonSpecInsts            0                       # Number of dispatched non-speculative instructions
system.switch_cpus.iew.iewDispSquashedInsts         4730                       # Number of squashed instructions skipped by dispatch
system.switch_cpus.iew.iewDispStoreInsts       322910                       # Number of dispatched store instructions
system.switch_cpus.iew.iewDispatchedInsts     18896327                       # Number of instructions dispatched to IQ
system.switch_cpus.iew.iewExecLoadInsts       3049590                       # Number of load instructions executed
system.switch_cpus.iew.iewExecSquashedInsts       109260                       # Number of squashed instructions skipped in execute
system.switch_cpus.iew.iewExecutedInsts      18140183                       # Number of executed instructions
system.switch_cpus.iew.iewIQFullEvents          80818                       # Number of times the IQ has become full, causing a stall
system.switch_cpus.iew.iewIdleCycles                0                       # Number of cycles IEW is idle
system.switch_cpus.iew.iewLSQFullEvents        761237                       # Number of times the LSQ has become full, causing a stall
system.switch_cpus.iew.iewSquashCycles          60068                       # Number of cycles IEW is squashing
system.switch_cpus.iew.iewUnblockCycles        891060                       # Number of cycles IEW is unblocking
system.switch_cpus.iew.lsq.thread0.blockedLoads            0                       # Number of blocked loads due to partial load-store forwarding
system.switch_cpus.iew.lsq.thread0.cacheBlocked        21246                       # Number of times an access to memory failed due to the cache being blocked
system.switch_cpus.iew.lsq.thread0.forwLoads        36832                       # Number of loads that had data forwarded from stores
system.switch_cpus.iew.lsq.thread0.ignoredResponses          253                       # Number of memory responses ignored because the instruction is squashed
system.switch_cpus.iew.lsq.thread0.invAddrLoads            0                       # Number of loads ignored due to an invalid address
system.switch_cpus.iew.lsq.thread0.invAddrSwpfs            0                       # Number of software prefetches ignored due to an invalid address
system.switch_cpus.iew.lsq.thread0.memOrderViolation          216                       # Number of memory ordering violations
system.switch_cpus.iew.lsq.thread0.rescheduledLoads           32                       # Number of loads that were rescheduled
system.switch_cpus.iew.lsq.thread0.squashedLoads       417376                       # Number of loads squashed
system.switch_cpus.iew.lsq.thread0.squashedStores        64388                       # Number of stores squashed
system.switch_cpus.iew.memOrderViolationEvents          216                       # Number of memory order violations
system.switch_cpus.iew.predictedNotTakenIncorrect        20159                       # Number of branches that were predicted not taken incorrectly
system.switch_cpus.iew.predictedTakenIncorrect        46884                       # Number of branches that were predicted taken incorrectly
system.switch_cpus.iew.wb_consumers          23656614                       # num instructions consuming a value
system.switch_cpus.iew.wb_count              17910005                       # cumulative count of insts written-back
system.switch_cpus.iew.wb_fanout             0.589572                       # average fanout of values written-back
system.switch_cpus.iew.wb_producers          13947273                       # num instructions producing a value
system.switch_cpus.iew.wb_rate               0.975826                       # insts written-back per cycle
system.switch_cpus.iew.wb_sent               17935281                       # cumulative count of insts sent to commit
system.switch_cpus.int_regfile_reads         15411383                       # number of integer regfile reads
system.switch_cpus.int_regfile_writes         7198690                       # number of integer regfile writes
system.switch_cpus.ipc                       0.544850                       # IPC: Instructions Per Cycle
system.switch_cpus.ipc_total                 0.544850                       # IPC: Total IPC of All Threads
system.switch_cpus.iq.FU_type_0::No_OpClass        35700      0.20%      0.20% # Type of FU issued
system.switch_cpus.iq.FU_type_0::IntAlu       8003366     43.86%     44.05% # Type of FU issued
system.switch_cpus.iq.FU_type_0::IntMult           29      0.00%     44.05% # Type of FU issued
system.switch_cpus.iq.FU_type_0::IntDiv            87      0.00%     44.05% # Type of FU issued
system.switch_cpus.iq.FU_type_0::FloatAdd       898826      4.93%     48.98% # Type of FU issued
system.switch_cpus.iq.FU_type_0::FloatCmp            0      0.00%     48.98% # Type of FU issued
system.switch_cpus.iq.FU_type_0::FloatCvt            0      0.00%     48.98% # Type of FU issued
system.switch_cpus.iq.FU_type_0::FloatMult            0      0.00%     48.98% # Type of FU issued
system.switch_cpus.iq.FU_type_0::FloatMultAcc            0      0.00%     48.98% # Type of FU issued
system.switch_cpus.iq.FU_type_0::FloatDiv            0      0.00%     48.98% # Type of FU issued
system.switch_cpus.iq.FU_type_0::FloatMisc            0      0.00%     48.98% # Type of FU issued
system.switch_cpus.iq.FU_type_0::FloatSqrt            0      0.00%     48.98% # Type of FU issued
system.switch_cpus.iq.FU_type_0::SimdAdd            0      0.00%     48.98% # Type of FU issued
system.switch_cpus.iq.FU_type_0::SimdAddAcc            0      0.00%     48.98% # Type of FU issued
system.switch_cpus.iq.FU_type_0::SimdAlu      1537303      8.42%     57.40% # Type of FU issued
system.switch_cpus.iq.FU_type_0::SimdCmp            0      0.00%     57.40% # Type of FU issued
system.switch_cpus.iq.FU_type_0::SimdCvt           14      0.00%     57.40% # Type of FU issued
system.switch_cpus.iq.FU_type_0::SimdMisc        41301      0.23%     57.63% # Type of FU issued
system.switch_cpus.iq.FU_type_0::SimdMult            0      0.00%     57.63% # Type of FU issued
system.switch_cpus.iq.FU_type_0::SimdMultAcc            0      0.00%     57.63% # Type of FU issued
system.switch_cpus.iq.FU_type_0::SimdShift            0      0.00%     57.63% # Type of FU issued
system.switch_cpus.iq.FU_type_0::SimdShiftAcc            0      0.00%     57.63% # Type of FU issued
system.switch_cpus.iq.FU_type_0::SimdDiv            0      0.00%     57.63% # Type of FU issued
system.switch_cpus.iq.FU_type_0::SimdSqrt            0      0.00%     57.63% # Type of FU issued
system.switch_cpus.iq.FU_type_0::SimdFloatAdd      1394996      7.64%     65.27% # Type of FU issued
system.switch_cpus.iq.FU_type_0::SimdFloatAlu            0      0.00%     65.27% # Type of FU issued
system.switch_cpus.iq.FU_type_0::SimdFloatCmp        20121      0.11%     65.38% # Type of FU issued
system.switch_cpus.iq.FU_type_0::SimdFloatCvt      1498980      8.21%     73.60% # Type of FU issued
system.switch_cpus.iq.FU_type_0::SimdFloatDiv            0      0.00%     73.60% # Type of FU issued
system.switch_cpus.iq.FU_type_0::SimdFloatMisc            0      0.00%     73.60% # Type of FU issued
system.switch_cpus.iq.FU_type_0::SimdFloatMult      1436149      7.87%     81.46% # Type of FU issued
system.switch_cpus.iq.FU_type_0::SimdFloatMultAcc            0      0.00%     81.46% # Type of FU issued
system.switch_cpus.iq.FU_type_0::SimdFloatSqrt            0      0.00%     81.46% # Type of FU issued
system.switch_cpus.iq.FU_type_0::SimdReduceAdd            0      0.00%     81.46% # Type of FU issued
system.switch_cpus.iq.FU_type_0::SimdReduceAlu            0      0.00%     81.46% # Type of FU issued
system.switch_cpus.iq.FU_type_0::SimdReduceCmp            0      0.00%     81.46% # Type of FU issued
system.switch_cpus.iq.FU_type_0::SimdFloatReduceAdd            0      0.00%     81.46% # Type of FU issued
system.switch_cpus.iq.FU_type_0::SimdFloatReduceCmp            0      0.00%     81.46% # Type of FU issued
system.switch_cpus.iq.FU_type_0::SimdAes            0      0.00%     81.46% # Type of FU issued
system.switch_cpus.iq.FU_type_0::SimdAesMix            0      0.00%     81.46% # Type of FU issued
system.switch_cpus.iq.FU_type_0::SimdSha1Hash            0      0.00%     81.46% # Type of FU issued
system.switch_cpus.iq.FU_type_0::SimdSha1Hash2            0      0.00%     81.46% # Type of FU issued
system.switch_cpus.iq.FU_type_0::SimdSha256Hash            0      0.00%     81.46% # Type of FU issued
system.switch_cpus.iq.FU_type_0::SimdSha256Hash2            0      0.00%     81.46% # Type of FU issued
system.switch_cpus.iq.FU_type_0::SimdShaSigma2            0      0.00%     81.46% # Type of FU issued
system.switch_cpus.iq.FU_type_0::SimdShaSigma3            0      0.00%     81.46% # Type of FU issued
system.switch_cpus.iq.FU_type_0::SimdPredAlu            0      0.00%     81.46% # Type of FU issued
system.switch_cpus.iq.FU_type_0::MemRead      1080505      5.92%     87.39% # Type of FU issued
system.switch_cpus.iq.FU_type_0::MemWrite       228239      1.25%     88.64% # Type of FU issued
system.switch_cpus.iq.FU_type_0::FloatMemRead      2009696     11.01%     99.65% # Type of FU issued
system.switch_cpus.iq.FU_type_0::FloatMemWrite        64137      0.35%    100.00% # Type of FU issued
system.switch_cpus.iq.FU_type_0::IprAccess            0      0.00%    100.00% # Type of FU issued
system.switch_cpus.iq.FU_type_0::InstPrefetch            0      0.00%    100.00% # Type of FU issued
system.switch_cpus.iq.FU_type_0::total       18249449                       # Type of FU issued
system.switch_cpus.iq.fp_alu_accesses         9746264                       # Number of floating point alu accesses
system.switch_cpus.iq.fp_inst_queue_reads     19311004                       # Number of floating instruction queue reads
system.switch_cpus.iq.fp_inst_queue_wakeup_accesses      9415333                       # Number of floating instruction queue wakeup accesses
system.switch_cpus.iq.fp_inst_queue_writes     10138530                       # Number of floating instruction queue writes
system.switch_cpus.iq.fu_busy_cnt              312359                       # FU busy when requested
system.switch_cpus.iq.fu_busy_rate           0.017116                       # FU busy rate (busy events/executed inst)
system.switch_cpus.iq.fu_full::No_OpClass            0      0.00%      0.00% # attempts to use FU when none available
system.switch_cpus.iq.fu_full::IntAlu          104204     33.36%     33.36% # attempts to use FU when none available
system.switch_cpus.iq.fu_full::IntMult              0      0.00%     33.36% # attempts to use FU when none available
system.switch_cpus.iq.fu_full::IntDiv               0      0.00%     33.36% # attempts to use FU when none available
system.switch_cpus.iq.fu_full::FloatAdd             0      0.00%     33.36% # attempts to use FU when none available
system.switch_cpus.iq.fu_full::FloatCmp             0      0.00%     33.36% # attempts to use FU when none available
system.switch_cpus.iq.fu_full::FloatCvt             0      0.00%     33.36% # attempts to use FU when none available
system.switch_cpus.iq.fu_full::FloatMult            0      0.00%     33.36% # attempts to use FU when none available
system.switch_cpus.iq.fu_full::FloatMultAcc            0      0.00%     33.36% # attempts to use FU when none available
system.switch_cpus.iq.fu_full::FloatDiv             0      0.00%     33.36% # attempts to use FU when none available
system.switch_cpus.iq.fu_full::FloatMisc            0      0.00%     33.36% # attempts to use FU when none available
system.switch_cpus.iq.fu_full::FloatSqrt            0      0.00%     33.36% # attempts to use FU when none available
system.switch_cpus.iq.fu_full::SimdAdd              0      0.00%     33.36% # attempts to use FU when none available
system.switch_cpus.iq.fu_full::SimdAddAcc            0      0.00%     33.36% # attempts to use FU when none available
system.switch_cpus.iq.fu_full::SimdAlu          53071     16.99%     50.35% # attempts to use FU when none available
system.switch_cpus.iq.fu_full::SimdCmp              0      0.00%     50.35% # attempts to use FU when none available
system.switch_cpus.iq.fu_full::SimdCvt              0      0.00%     50.35% # attempts to use FU when none available
system.switch_cpus.iq.fu_full::SimdMisc             0      0.00%     50.35% # attempts to use FU when none available
system.switch_cpus.iq.fu_full::SimdMult             0      0.00%     50.35% # attempts to use FU when none available
system.switch_cpus.iq.fu_full::SimdMultAcc            0      0.00%     50.35% # attempts to use FU when none available
system.switch_cpus.iq.fu_full::SimdShift            0      0.00%     50.35% # attempts to use FU when none available
system.switch_cpus.iq.fu_full::SimdShiftAcc            0      0.00%     50.35% # attempts to use FU when none available
system.switch_cpus.iq.fu_full::SimdDiv              0      0.00%     50.35% # attempts to use FU when none available
system.switch_cpus.iq.fu_full::SimdSqrt             0      0.00%     50.35% # attempts to use FU when none available
system.switch_cpus.iq.fu_full::SimdFloatAdd        71220     22.80%     73.15% # attempts to use FU when none available
system.switch_cpus.iq.fu_full::SimdFloatAlu            0      0.00%     73.15% # attempts to use FU when none available
system.switch_cpus.iq.fu_full::SimdFloatCmp            0      0.00%     73.15% # attempts to use FU when none available
system.switch_cpus.iq.fu_full::SimdFloatCvt        19330      6.19%     79.34% # attempts to use FU when none available
system.switch_cpus.iq.fu_full::SimdFloatDiv            0      0.00%     79.34% # attempts to use FU when none available
system.switch_cpus.iq.fu_full::SimdFloatMisc            0      0.00%     79.34% # attempts to use FU when none available
system.switch_cpus.iq.fu_full::SimdFloatMult         4124      1.32%     80.66% # attempts to use FU when none available
system.switch_cpus.iq.fu_full::SimdFloatMultAcc            0      0.00%     80.66% # attempts to use FU when none available
system.switch_cpus.iq.fu_full::SimdFloatSqrt            0      0.00%     80.66% # attempts to use FU when none available
system.switch_cpus.iq.fu_full::SimdReduceAdd            0      0.00%     80.66% # attempts to use FU when none available
system.switch_cpus.iq.fu_full::SimdReduceAlu            0      0.00%     80.66% # attempts to use FU when none available
system.switch_cpus.iq.fu_full::SimdReduceCmp            0      0.00%     80.66% # attempts to use FU when none available
system.switch_cpus.iq.fu_full::SimdFloatReduceAdd            0      0.00%     80.66% # attempts to use FU when none available
system.switch_cpus.iq.fu_full::SimdFloatReduceCmp            0      0.00%     80.66% # attempts to use FU when none available
system.switch_cpus.iq.fu_full::SimdAes              0      0.00%     80.66% # attempts to use FU when none available
system.switch_cpus.iq.fu_full::SimdAesMix            0      0.00%     80.66% # attempts to use FU when none available
system.switch_cpus.iq.fu_full::SimdSha1Hash            0      0.00%     80.66% # attempts to use FU when none available
system.switch_cpus.iq.fu_full::SimdSha1Hash2            0      0.00%     80.66% # attempts to use FU when none available
system.switch_cpus.iq.fu_full::SimdSha256Hash            0      0.00%     80.66% # attempts to use FU when none available
system.switch_cpus.iq.fu_full::SimdSha256Hash2            0      0.00%     80.66% # attempts to use FU when none available
system.switch_cpus.iq.fu_full::SimdShaSigma2            0      0.00%     80.66% # attempts to use FU when none available
system.switch_cpus.iq.fu_full::SimdShaSigma3            0      0.00%     80.66% # attempts to use FU when none available
system.switch_cpus.iq.fu_full::SimdPredAlu            0      0.00%     80.66% # attempts to use FU when none available
system.switch_cpus.iq.fu_full::MemRead          21172      6.78%     87.44% # attempts to use FU when none available
system.switch_cpus.iq.fu_full::MemWrite          3454      1.11%     88.54% # attempts to use FU when none available
system.switch_cpus.iq.fu_full::FloatMemRead        35728     11.44%     99.98% # attempts to use FU when none available
system.switch_cpus.iq.fu_full::FloatMemWrite           56      0.02%    100.00% # attempts to use FU when none available
system.switch_cpus.iq.fu_full::IprAccess            0      0.00%    100.00% # attempts to use FU when none available
system.switch_cpus.iq.fu_full::InstPrefetch            0      0.00%    100.00% # attempts to use FU when none available
system.switch_cpus.iq.int_alu_accesses        8779844                       # Number of integer alu accesses
system.switch_cpus.iq.int_inst_queue_reads     35860120                       # Number of integer instruction queue reads
system.switch_cpus.iq.int_inst_queue_wakeup_accesses      8494672                       # Number of integer instruction queue wakeup accesses
system.switch_cpus.iq.int_inst_queue_writes     10954577                       # Number of integer instruction queue writes
system.switch_cpus.iq.iqInstsAdded           18896327                       # Number of instructions added to the IQ (excludes non-spec)
system.switch_cpus.iq.iqInstsIssued          18249449                       # Number of instructions issued
system.switch_cpus.iq.iqSquashedInstsExamined      2196567                       # Number of squashed instructions iterated over during squash; mainly for profiling
system.switch_cpus.iq.iqSquashedInstsIssued        36809                       # Number of squashed instructions issued
system.switch_cpus.iq.iqSquashedOperandsExamined      3284525                       # Number of squashed operands that are examined and possibly removed from graph
system.switch_cpus.iq.issued_per_cycle::samples     18323064                       # Number of insts issued each cycle
system.switch_cpus.iq.issued_per_cycle::mean     0.995982                       # Number of insts issued each cycle
system.switch_cpus.iq.issued_per_cycle::stdev     1.867115                       # Number of insts issued each cycle
system.switch_cpus.iq.issued_per_cycle::underflows            0      0.00%      0.00% # Number of insts issued each cycle
system.switch_cpus.iq.issued_per_cycle::0     12682918     69.22%     69.22% # Number of insts issued each cycle
system.switch_cpus.iq.issued_per_cycle::1      1457240      7.95%     77.17% # Number of insts issued each cycle
system.switch_cpus.iq.issued_per_cycle::2      1072225      5.85%     83.02% # Number of insts issued each cycle
system.switch_cpus.iq.issued_per_cycle::3       873634      4.77%     87.79% # Number of insts issued each cycle
system.switch_cpus.iq.issued_per_cycle::4       773190      4.22%     92.01% # Number of insts issued each cycle
system.switch_cpus.iq.issued_per_cycle::5       522458      2.85%     94.86% # Number of insts issued each cycle
system.switch_cpus.iq.issued_per_cycle::6       451201      2.46%     97.32% # Number of insts issued each cycle
system.switch_cpus.iq.issued_per_cycle::7       306983      1.68%     99.00% # Number of insts issued each cycle
system.switch_cpus.iq.issued_per_cycle::8       183215      1.00%    100.00% # Number of insts issued each cycle
system.switch_cpus.iq.issued_per_cycle::overflows            0      0.00%    100.00% # Number of insts issued each cycle
system.switch_cpus.iq.issued_per_cycle::min_value            0                       # Number of insts issued each cycle
system.switch_cpus.iq.issued_per_cycle::max_value            8                       # Number of insts issued each cycle
system.switch_cpus.iq.issued_per_cycle::total     18323064                       # Number of insts issued each cycle
system.switch_cpus.iq.rate                   0.994321                       # Inst issue rate
system.switch_cpus.iq.vec_alu_accesses              0                       # Number of vector alu accesses
system.switch_cpus.iq.vec_inst_queue_reads            0                       # Number of vector instruction queue reads
system.switch_cpus.iq.vec_inst_queue_wakeup_accesses            0                       # Number of vector instruction queue wakeup accesses
system.switch_cpus.iq.vec_inst_queue_writes            0                       # Number of vector instruction queue writes
system.switch_cpus.itb.rdAccesses                   0                       # TLB accesses on read requests
system.switch_cpus.itb.rdMisses                     0                       # TLB misses on read requests
system.switch_cpus.itb.wrAccesses             1492214                       # TLB accesses on write requests
system.switch_cpus.itb.wrMisses                   297                       # TLB misses on write requests
system.switch_cpus.memDep0.conflictingLoads        44496                       # Number of conflicting loads.
system.switch_cpus.memDep0.conflictingStores        16694                       # Number of conflicting stores.
system.switch_cpus.memDep0.insertedLoads      3068487                       # Number of loads inserted to the mem dependence unit.
system.switch_cpus.memDep0.insertedStores       322910                       # Number of stores inserted to the mem dependence unit.
system.switch_cpus.misc_regfile_reads         5606541                       # number of misc regfile reads
system.switch_cpus.misc_regfile_writes              1                       # number of misc regfile writes
system.switch_cpus.numCycles                 18353684                       # number of cpu cycles simulated
system.switch_cpus.numWorkItemsCompleted            0                       # number of work items this cpu completed
system.switch_cpus.numWorkItemsStarted              0                       # number of work items this cpu started
system.switch_cpus.rename.BlockCycles        11627160                       # Number of cycles rename is blocking
system.switch_cpus.rename.CommittedMaps      19126939                       # Number of HB maps that are committed
system.switch_cpus.rename.IQFullEvents        1527908                       # Number of times rename has blocked due to IQ full
system.switch_cpus.rename.IdleCycles          1362583                       # Number of cycles rename is idle
system.switch_cpus.rename.LQFullEvents         445472                       # Number of times rename has blocked due to LQ full
system.switch_cpus.rename.ROBFullEvents        139817                       # Number of times rename has blocked due to ROB full
system.switch_cpus.rename.RenameLookups      46958438                       # Number of register rename lookups that rename has made
system.switch_cpus.rename.RenamedInsts       19344523                       # Number of instructions processed by rename
system.switch_cpus.rename.RenamedOperands     22296287                       # Number of destination operands rename has renamed
system.switch_cpus.rename.RunCycles           2353067                       # Number of cycles rename is running
system.switch_cpus.rename.SQFullEvents         675024                       # Number of times rename has blocked due to SQ full
system.switch_cpus.rename.SquashCycles          60068                       # Number of cycles rename is squashing
system.switch_cpus.rename.UnblockCycles       2920185                       # Number of cycles rename is unblocking
system.switch_cpus.rename.UndoneMaps          3169190                       # Number of HB maps that are undone due to squashing
system.switch_cpus.rename.fp_rename_lookups     16838262                       # Number of floating rename lookups
system.switch_cpus.rename.int_rename_lookups     17006361                       # Number of integer rename lookups
system.switch_cpus.rename.serializeStallCycles            0                       # count of cycles rename stalled for serializing inst
system.switch_cpus.rename.serializingInsts            0                       # count of serializing insts renamed
system.switch_cpus.rename.skidInsts           4578113                       # count of insts added to the skid buffer
system.switch_cpus.rename.tempSerializingInsts            0                       # count of temporary serializing insts renamed
system.switch_cpus.rob.rob_reads             35537512                       # The number of ROB reads
system.switch_cpus.rob.rob_writes            38108627                       # The number of ROB writes
system.switch_cpus.timesIdled                     345                       # Number of times that the entire CPU went into an idle state and unscheduled itself
system.tol2bus.snoop_filter.hit_multi_requests            0                       # Number of requests hitting in the snoop filter with multiple (>1) holders of the requested data.
system.tol2bus.snoop_filter.hit_multi_snoops            0                       # Number of snoops hitting in the snoop filter with multiple (>1) holders of the requested data.
system.tol2bus.snoop_filter.hit_single_requests       183464                       # Number of requests hitting in the snoop filter with a single holder of the requested data.
system.tol2bus.snoop_filter.hit_single_snoops       158613                       # Number of snoops hitting in the snoop filter with a single holder of the requested data.
system.tol2bus.snoop_filter.tot_requests       368242                       # Total number of requests made to the snoop filter.
system.tol2bus.snoop_filter.tot_snoops         158613                       # Total number of snoops made to the snoop filter.
system.membus.pwrStateResidencyTicks::UNDEFINED 270776456906000                       # Cumulative time (in ticks) in various power states
system.membus.trans_dist::ReadResp             156401                       # Transaction distribution
system.membus.trans_dist::WritebackDirty        14874                       # Transaction distribution
system.membus.trans_dist::CleanEvict           148795                       # Transaction distribution
system.membus.trans_dist::ReadExReq             10347                       # Transaction distribution
system.membus.trans_dist::ReadExResp            10347                       # Transaction distribution
system.membus.trans_dist::ReadSharedReq        156402                       # Transaction distribution
system.membus.pkt_count_system.l2.mem_side::system.mem_ctrls.port       497166                       # Packet count per connected master and slave (bytes)
system.membus.pkt_count_system.l2.mem_side::total       497166                       # Packet count per connected master and slave (bytes)
system.membus.pkt_count::total                 497166                       # Packet count per connected master and slave (bytes)
system.membus.pkt_size_system.l2.mem_side::system.mem_ctrls.port     11623808                       # Cumulative packet size per connected master and slave (bytes)
system.membus.pkt_size_system.l2.mem_side::total     11623808                       # Cumulative packet size per connected master and slave (bytes)
system.membus.pkt_size::total                11623808                       # Cumulative packet size per connected master and slave (bytes)
system.membus.snoops                                0                       # Total snoops (count)
system.membus.snoopTraffic                          0                       # Total snoop traffic (bytes)
system.membus.snoop_fanout::samples            166749                       # Request fanout histogram
system.membus.snoop_fanout::mean                    0                       # Request fanout histogram
system.membus.snoop_fanout::stdev                   0                       # Request fanout histogram
system.membus.snoop_fanout::underflows              0      0.00%      0.00% # Request fanout histogram
system.membus.snoop_fanout::0                  166749    100.00%    100.00% # Request fanout histogram
system.membus.snoop_fanout::1                       0      0.00%    100.00% # Request fanout histogram
system.membus.snoop_fanout::overflows               0      0.00%    100.00% # Request fanout histogram
system.membus.snoop_fanout::min_value               0                       # Request fanout histogram
system.membus.snoop_fanout::max_value               0                       # Request fanout histogram
system.membus.snoop_fanout::total              166749                       # Request fanout histogram
system.membus.reqLayer2.occupancy           425029500                       # Layer occupancy (ticks)
system.membus.reqLayer2.utilization               4.6                       # Layer utilization (%)
system.membus.respLayer1.occupancy          891301750                       # Layer occupancy (ticks)
system.membus.respLayer1.utilization              9.7                       # Layer utilization (%)
system.switch_cpus.pwrStateResidencyTicks::OFF   9176852250                       # Cumulative time (in ticks) in various power states
system.switch_cpus.dtb.walker.pwrStateResidencyTicks::UNDEFINED 270776456906000                       # Cumulative time (in ticks) in various power states
system.switch_cpus.itb.walker.pwrStateResidencyTicks::UNDEFINED 270776456906000                       # Cumulative time (in ticks) in various power states
system.tol2bus.pwrStateResidencyTicks::UNDEFINED 270776456906000                       # Cumulative time (in ticks) in various power states
system.tol2bus.trans_dist::ReadResp            172430                       # Transaction distribution
system.tol2bus.trans_dist::WritebackDirty        45506                       # Transaction distribution
system.tol2bus.trans_dist::WritebackClean          177                       # Transaction distribution
system.tol2bus.trans_dist::CleanEvict          317400                       # Transaction distribution
system.tol2bus.trans_dist::ReadExReq            12347                       # Transaction distribution
system.tol2bus.trans_dist::ReadExResp           12347                       # Transaction distribution
system.tol2bus.trans_dist::ReadCleanReq           466                       # Transaction distribution
system.tol2bus.trans_dist::ReadSharedReq       171965                       # Transaction distribution
system.tol2bus.pkt_count_system.cpu.icache.mem_side::system.l2.cpu_side         1109                       # Packet count per connected master and slave (bytes)
system.tol2bus.pkt_count_system.cpu.dcache.mem_side::system.l2.cpu_side       551910                       # Packet count per connected master and slave (bytes)
system.tol2bus.pkt_count::total                553019                       # Packet count per connected master and slave (bytes)
system.tol2bus.pkt_size_system.cpu.icache.mem_side::system.l2.cpu_side        41152                       # Cumulative packet size per connected master and slave (bytes)
system.tol2bus.pkt_size_system.cpu.dcache.mem_side::system.l2.cpu_side     13756352                       # Cumulative packet size per connected master and slave (bytes)
system.tol2bus.pkt_size::total               13797504                       # Cumulative packet size per connected master and slave (bytes)
system.tol2bus.snoops                          179619                       # Total snoops (count)
system.tol2bus.snoopTraffic                    951936                       # Total snoop traffic (bytes)
system.tol2bus.snoop_fanout::samples           364397                       # Request fanout histogram
system.tol2bus.snoop_fanout::mean            0.435275                       # Request fanout histogram
system.tol2bus.snoop_fanout::stdev           0.495794                       # Request fanout histogram
system.tol2bus.snoop_fanout::underflows             0      0.00%      0.00% # Request fanout histogram
system.tol2bus.snoop_fanout::0                 205784     56.47%     56.47% # Request fanout histogram
system.tol2bus.snoop_fanout::1                 158613     43.53%    100.00% # Request fanout histogram
system.tol2bus.snoop_fanout::2                      0      0.00%    100.00% # Request fanout histogram
system.tol2bus.snoop_fanout::3                      0      0.00%    100.00% # Request fanout histogram
system.tol2bus.snoop_fanout::4                      0      0.00%    100.00% # Request fanout histogram
system.tol2bus.snoop_fanout::overflows              0      0.00%    100.00% # Request fanout histogram
system.tol2bus.snoop_fanout::min_value              0                       # Request fanout histogram
system.tol2bus.snoop_fanout::max_value              1                       # Request fanout histogram
system.tol2bus.snoop_fanout::total             364397                       # Request fanout histogram
system.tol2bus.reqLayer0.occupancy          214927500                       # Layer occupancy (ticks)
system.tol2bus.reqLayer0.utilization              2.3                       # Layer utilization (%)
system.tol2bus.respLayer1.occupancy         276462000                       # Layer occupancy (ticks)
system.tol2bus.respLayer1.utilization             3.0                       # Layer utilization (%)
system.tol2bus.respLayer0.occupancy            696000                       # Layer occupancy (ticks)
system.tol2bus.respLayer0.utilization             0.0                       # Layer utilization (%)
system.voltage_domain.voltage                       1                       # Voltage in Volts
system.clk_domain.clock                          1000                       # Clock period in ticks
system.l2.pwrStateResidencyTicks::UNDEFINED 270776456906000                       # Cumulative time (in ticks) in various power states
system.l2.demand_hits::.switch_cpus.inst           15                       # number of demand (read+write) hits
system.l2.demand_hits::.switch_cpus.data        18014                       # number of demand (read+write) hits
system.l2.demand_hits::total                    18029                       # number of demand (read+write) hits
system.l2.overall_hits::.switch_cpus.inst           15                       # number of overall hits
system.l2.overall_hits::.switch_cpus.data        18014                       # number of overall hits
system.l2.overall_hits::total                   18029                       # number of overall hits
system.l2.demand_misses::.cpu.inst                  2                       # number of demand (read+write) misses
system.l2.demand_misses::.cpu.data                  3                       # number of demand (read+write) misses
system.l2.demand_misses::.switch_cpus.inst          449                       # number of demand (read+write) misses
system.l2.demand_misses::.switch_cpus.data       166295                       # number of demand (read+write) misses
system.l2.demand_misses::total                 166749                       # number of demand (read+write) misses
system.l2.overall_misses::.cpu.inst                 2                       # number of overall misses
system.l2.overall_misses::.cpu.data                 3                       # number of overall misses
system.l2.overall_misses::.switch_cpus.inst          449                       # number of overall misses
system.l2.overall_misses::.switch_cpus.data       166295                       # number of overall misses
system.l2.overall_misses::total                166749                       # number of overall misses
system.l2.demand_miss_latency::.switch_cpus.inst     42472500                       # number of demand (read+write) miss cycles
system.l2.demand_miss_latency::.switch_cpus.data  13655260500                       # number of demand (read+write) miss cycles
system.l2.demand_miss_latency::total      13697733000                       # number of demand (read+write) miss cycles
system.l2.overall_miss_latency::.switch_cpus.inst     42472500                       # number of overall miss cycles
system.l2.overall_miss_latency::.switch_cpus.data  13655260500                       # number of overall miss cycles
system.l2.overall_miss_latency::total     13697733000                       # number of overall miss cycles
system.l2.demand_accesses::.cpu.inst                2                       # number of demand (read+write) accesses
system.l2.demand_accesses::.cpu.data                3                       # number of demand (read+write) accesses
system.l2.demand_accesses::.switch_cpus.inst          464                       # number of demand (read+write) accesses
system.l2.demand_accesses::.switch_cpus.data       184309                       # number of demand (read+write) accesses
system.l2.demand_accesses::total               184778                       # number of demand (read+write) accesses
system.l2.overall_accesses::.cpu.inst               2                       # number of overall (read+write) accesses
system.l2.overall_accesses::.cpu.data               3                       # number of overall (read+write) accesses
system.l2.overall_accesses::.switch_cpus.inst          464                       # number of overall (read+write) accesses
system.l2.overall_accesses::.switch_cpus.data       184309                       # number of overall (read+write) accesses
system.l2.overall_accesses::total              184778                       # number of overall (read+write) accesses
system.l2.demand_miss_rate::.cpu.inst               1                       # miss rate for demand accesses
system.l2.demand_miss_rate::.cpu.data               1                       # miss rate for demand accesses
system.l2.demand_miss_rate::.switch_cpus.inst     0.967672                       # miss rate for demand accesses
system.l2.demand_miss_rate::.switch_cpus.data     0.902262                       # miss rate for demand accesses
system.l2.demand_miss_rate::total            0.902429                       # miss rate for demand accesses
system.l2.overall_miss_rate::.cpu.inst              1                       # miss rate for overall accesses
system.l2.overall_miss_rate::.cpu.data              1                       # miss rate for overall accesses
system.l2.overall_miss_rate::.switch_cpus.inst     0.967672                       # miss rate for overall accesses
system.l2.overall_miss_rate::.switch_cpus.data     0.902262                       # miss rate for overall accesses
system.l2.overall_miss_rate::total           0.902429                       # miss rate for overall accesses
system.l2.demand_avg_miss_latency::.switch_cpus.inst 94593.541203                       # average overall miss latency
system.l2.demand_avg_miss_latency::.switch_cpus.data 82114.678734                       # average overall miss latency
system.l2.demand_avg_miss_latency::total 82145.817966                       # average overall miss latency
system.l2.overall_avg_miss_latency::.switch_cpus.inst 94593.541203                       # average overall miss latency
system.l2.overall_avg_miss_latency::.switch_cpus.data 82114.678734                       # average overall miss latency
system.l2.overall_avg_miss_latency::total 82145.817966                       # average overall miss latency
system.l2.blocked_cycles::no_mshrs                  0                       # number of cycles access was blocked
system.l2.blocked_cycles::no_targets                0                       # number of cycles access was blocked
system.l2.blocked::no_mshrs                         0                       # number of cycles access was blocked
system.l2.blocked::no_targets                       0                       # number of cycles access was blocked
system.l2.avg_blocked_cycles::no_mshrs            nan                       # average number of cycles each access was blocked
system.l2.avg_blocked_cycles::no_targets          nan                       # average number of cycles each access was blocked
system.l2.writebacks::.writebacks               14874                       # number of writebacks
system.l2.writebacks::total                     14874                       # number of writebacks
system.l2.demand_mshr_misses::.switch_cpus.inst          449                       # number of demand (read+write) MSHR misses
system.l2.demand_mshr_misses::.switch_cpus.data       166295                       # number of demand (read+write) MSHR misses
system.l2.demand_mshr_misses::total            166744                       # number of demand (read+write) MSHR misses
system.l2.overall_mshr_misses::.switch_cpus.inst          449                       # number of overall MSHR misses
system.l2.overall_mshr_misses::.switch_cpus.data       166295                       # number of overall MSHR misses
system.l2.overall_mshr_misses::total           166744                       # number of overall MSHR misses
system.l2.demand_mshr_miss_latency::.switch_cpus.inst     37982500                       # number of demand (read+write) MSHR miss cycles
system.l2.demand_mshr_miss_latency::.switch_cpus.data  11992320500                       # number of demand (read+write) MSHR miss cycles
system.l2.demand_mshr_miss_latency::total  12030303000                       # number of demand (read+write) MSHR miss cycles
system.l2.overall_mshr_miss_latency::.switch_cpus.inst     37982500                       # number of overall MSHR miss cycles
system.l2.overall_mshr_miss_latency::.switch_cpus.data  11992320500                       # number of overall MSHR miss cycles
system.l2.overall_mshr_miss_latency::total  12030303000                       # number of overall MSHR miss cycles
system.l2.demand_mshr_miss_rate::.switch_cpus.inst     0.967672                       # mshr miss rate for demand accesses
system.l2.demand_mshr_miss_rate::.switch_cpus.data     0.902262                       # mshr miss rate for demand accesses
system.l2.demand_mshr_miss_rate::total       0.902402                       # mshr miss rate for demand accesses
system.l2.overall_mshr_miss_rate::.switch_cpus.inst     0.967672                       # mshr miss rate for overall accesses
system.l2.overall_mshr_miss_rate::.switch_cpus.data     0.902262                       # mshr miss rate for overall accesses
system.l2.overall_mshr_miss_rate::total      0.902402                       # mshr miss rate for overall accesses
system.l2.demand_avg_mshr_miss_latency::.switch_cpus.inst 84593.541203                       # average overall mshr miss latency
system.l2.demand_avg_mshr_miss_latency::.switch_cpus.data 72114.738868                       # average overall mshr miss latency
system.l2.demand_avg_mshr_miss_latency::total 72148.341170                       # average overall mshr miss latency
system.l2.overall_avg_mshr_miss_latency::.switch_cpus.inst 84593.541203                       # average overall mshr miss latency
system.l2.overall_avg_mshr_miss_latency::.switch_cpus.data 72114.738868                       # average overall mshr miss latency
system.l2.overall_avg_mshr_miss_latency::total 72148.341170                       # average overall mshr miss latency
system.l2.replacements                         179619                       # number of replacements
system.l2.WritebackDirty_hits::.writebacks        30632                       # number of WritebackDirty hits
system.l2.WritebackDirty_hits::total            30632                       # number of WritebackDirty hits
system.l2.WritebackDirty_accesses::.writebacks        30632                       # number of WritebackDirty accesses(hits+misses)
system.l2.WritebackDirty_accesses::total        30632                       # number of WritebackDirty accesses(hits+misses)
system.l2.WritebackClean_hits::.writebacks          177                       # number of WritebackClean hits
system.l2.WritebackClean_hits::total              177                       # number of WritebackClean hits
system.l2.WritebackClean_accesses::.writebacks          177                       # number of WritebackClean accesses(hits+misses)
system.l2.WritebackClean_accesses::total          177                       # number of WritebackClean accesses(hits+misses)
system.l2.CleanEvict_mshr_misses::.writebacks       142664                       # number of CleanEvict MSHR misses
system.l2.CleanEvict_mshr_misses::total        142664                       # number of CleanEvict MSHR misses
system.l2.CleanEvict_mshr_miss_rate::.writebacks          inf                       # mshr miss rate for CleanEvict accesses
system.l2.CleanEvict_mshr_miss_rate::total          inf                       # mshr miss rate for CleanEvict accesses
system.l2.ReadExReq_hits::.switch_cpus.data         2000                       # number of ReadExReq hits
system.l2.ReadExReq_hits::total                  2000                       # number of ReadExReq hits
system.l2.ReadExReq_misses::.cpu.data               1                       # number of ReadExReq misses
system.l2.ReadExReq_misses::.switch_cpus.data        10346                       # number of ReadExReq misses
system.l2.ReadExReq_misses::total               10347                       # number of ReadExReq misses
system.l2.ReadExReq_miss_latency::.switch_cpus.data    830410000                       # number of ReadExReq miss cycles
system.l2.ReadExReq_miss_latency::total     830410000                       # number of ReadExReq miss cycles
system.l2.ReadExReq_accesses::.cpu.data             1                       # number of ReadExReq accesses(hits+misses)
system.l2.ReadExReq_accesses::.switch_cpus.data        12346                       # number of ReadExReq accesses(hits+misses)
system.l2.ReadExReq_accesses::total             12347                       # number of ReadExReq accesses(hits+misses)
system.l2.ReadExReq_miss_rate::.cpu.data            1                       # miss rate for ReadExReq accesses
system.l2.ReadExReq_miss_rate::.switch_cpus.data     0.838004                       # miss rate for ReadExReq accesses
system.l2.ReadExReq_miss_rate::total         0.838017                       # miss rate for ReadExReq accesses
system.l2.ReadExReq_avg_miss_latency::.switch_cpus.data 80263.870095                       # average ReadExReq miss latency
system.l2.ReadExReq_avg_miss_latency::total 80256.112883                       # average ReadExReq miss latency
system.l2.ReadExReq_mshr_misses::.switch_cpus.data        10346                       # number of ReadExReq MSHR misses
system.l2.ReadExReq_mshr_misses::total          10346                       # number of ReadExReq MSHR misses
system.l2.ReadExReq_mshr_miss_latency::.switch_cpus.data    726950000                       # number of ReadExReq MSHR miss cycles
system.l2.ReadExReq_mshr_miss_latency::total    726950000                       # number of ReadExReq MSHR miss cycles
system.l2.ReadExReq_mshr_miss_rate::.switch_cpus.data     0.838004                       # mshr miss rate for ReadExReq accesses
system.l2.ReadExReq_mshr_miss_rate::total     0.837936                       # mshr miss rate for ReadExReq accesses
system.l2.ReadExReq_avg_mshr_miss_latency::.switch_cpus.data 70263.870095                       # average ReadExReq mshr miss latency
system.l2.ReadExReq_avg_mshr_miss_latency::total 70263.870095                       # average ReadExReq mshr miss latency
system.l2.ReadCleanReq_hits::.switch_cpus.inst           15                       # number of ReadCleanReq hits
system.l2.ReadCleanReq_hits::total                 15                       # number of ReadCleanReq hits
system.l2.ReadCleanReq_misses::.cpu.inst            2                       # number of ReadCleanReq misses
system.l2.ReadCleanReq_misses::.switch_cpus.inst          449                       # number of ReadCleanReq misses
system.l2.ReadCleanReq_misses::total              451                       # number of ReadCleanReq misses
system.l2.ReadCleanReq_miss_latency::.switch_cpus.inst     42472500                       # number of ReadCleanReq miss cycles
system.l2.ReadCleanReq_miss_latency::total     42472500                       # number of ReadCleanReq miss cycles
system.l2.ReadCleanReq_accesses::.cpu.inst            2                       # number of ReadCleanReq accesses(hits+misses)
system.l2.ReadCleanReq_accesses::.switch_cpus.inst          464                       # number of ReadCleanReq accesses(hits+misses)
system.l2.ReadCleanReq_accesses::total            466                       # number of ReadCleanReq accesses(hits+misses)
system.l2.ReadCleanReq_miss_rate::.cpu.inst            1                       # miss rate for ReadCleanReq accesses
system.l2.ReadCleanReq_miss_rate::.switch_cpus.inst     0.967672                       # miss rate for ReadCleanReq accesses
system.l2.ReadCleanReq_miss_rate::total      0.967811                       # miss rate for ReadCleanReq accesses
system.l2.ReadCleanReq_avg_miss_latency::.switch_cpus.inst 94593.541203                       # average ReadCleanReq miss latency
[...]
system.cpu.itb.walker.pwrStateResidencyTicks::UNDEFINED 270804028915000                       # Cumulative time (in ticks) in various power states
system.cpu.dtb_walker_cache.pwrStateResidencyTicks::UNDEFINED 270804028915000                       # Cumulative time (in ticks) in various power states
system.cpu.dtb_walker_cache.blocked_cycles::no_mshrs            0                       # number of cycles access was blocked
system.cpu.dtb_walker_cache.blocked_cycles::no_targets            0                       # number of cycles access was blocked
system.cpu.dtb_walker_cache.blocked::no_mshrs            0                       # number of cycles access was blocked
system.cpu.dtb_walker_cache.blocked::no_targets            0                       # number of cycles access was blocked
system.cpu.dtb_walker_cache.avg_blocked_cycles::no_mshrs          nan                       # average number of cycles each access was blocked
system.cpu.dtb_walker_cache.avg_blocked_cycles::no_targets          nan                       # average number of cycles each access was blocked
system.cpu.dtb_walker_cache.replacements            0                       # number of replacements
system.cpu.dtb_walker_cache.tags.pwrStateResidencyTicks::UNDEFINED 270804028915000                       # Cumulative time (in ticks) in various power states
system.cpu.dtb_walker_cache.tags.tagsinuse            0                       # Cycle average of tags in use
system.cpu.dtb_walker_cache.tags.total_refs            0                       # Total number of references to valid blocks.
system.cpu.dtb_walker_cache.tags.sampled_refs            0                       # Sample count of references to valid blocks.
system.cpu.dtb_walker_cache.tags.avg_refs          nan                       # Average number of references to valid blocks.
system.cpu.dtb_walker_cache.tags.warmup_cycle            0                       # Cycle when the warmup percentage was hit.
system.cpu.dtb_walker_cache.tags.tag_accesses            0                       # Number of tag accesses
system.cpu.dtb_walker_cache.tags.data_accesses            0                       # Number of data accesses
system.cpu.dcache.pwrStateResidencyTicks::UNDEFINED 270804028915000                       # Cumulative time (in ticks) in various power states
system.cpu.dcache.demand_hits::.cpu.data            3                       # number of demand (read+write) hits
system.cpu.dcache.demand_hits::.switch_cpus.data     10250271                       # number of demand (read+write) hits
system.cpu.dcache.demand_hits::total         10250274                       # number of demand (read+write) hits
system.cpu.dcache.overall_hits::.cpu.data            3                       # number of overall hits
system.cpu.dcache.overall_hits::.switch_cpus.data     10266247                       # number of overall hits
system.cpu.dcache.overall_hits::total        10266250                       # number of overall hits
system.cpu.dcache.demand_misses::.cpu.data            3                       # number of demand (read+write) misses
system.cpu.dcache.demand_misses::.switch_cpus.data      3062519                       # number of demand (read+write) misses
system.cpu.dcache.demand_misses::total        3062522                       # number of demand (read+write) misses
system.cpu.dcache.overall_misses::.cpu.data            3                       # number of overall misses
system.cpu.dcache.overall_misses::.switch_cpus.data      3062925                       # number of overall misses
system.cpu.dcache.overall_misses::total       3062928                       # number of overall misses
system.cpu.dcache.demand_miss_latency::.switch_cpus.data 210198880398                       # number of demand (read+write) miss cycles
system.cpu.dcache.demand_miss_latency::total 210198880398                       # number of demand (read+write) miss cycles
system.cpu.dcache.overall_miss_latency::.switch_cpus.data 210198880398                       # number of overall miss cycles
system.cpu.dcache.overall_miss_latency::total 210198880398                       # number of overall miss cycles
system.cpu.dcache.demand_accesses::.cpu.data            6                       # number of demand (read+write) accesses
system.cpu.dcache.demand_accesses::.switch_cpus.data     13312790                       # number of demand (read+write) accesses
system.cpu.dcache.demand_accesses::total     13312796                       # number of demand (read+write) accesses
system.cpu.dcache.overall_accesses::.cpu.data            6                       # number of overall (read+write) accesses
system.cpu.dcache.overall_accesses::.switch_cpus.data     13329172                       # number of overall (read+write) accesses
system.cpu.dcache.overall_accesses::total     13329178                       # number of overall (read+write) accesses
system.cpu.dcache.demand_miss_rate::.cpu.data     0.500000                       # miss rate for demand accesses
system.cpu.dcache.demand_miss_rate::.switch_cpus.data     0.230043                       # miss rate for demand accesses
system.cpu.dcache.demand_miss_rate::total     0.230043                       # miss rate for demand accesses
system.cpu.dcache.overall_miss_rate::.cpu.data     0.500000                       # miss rate for overall accesses
system.cpu.dcache.overall_miss_rate::.switch_cpus.data     0.229791                       # miss rate for overall accesses
system.cpu.dcache.overall_miss_rate::total     0.229791                       # miss rate for overall accesses
system.cpu.dcache.demand_avg_miss_latency::.switch_cpus.data 68635.943287                       # average overall miss latency
system.cpu.dcache.demand_avg_miss_latency::total 68635.876052                       # average overall miss latency
system.cpu.dcache.overall_avg_miss_latency::.switch_cpus.data 68626.845384                       # average overall miss latency
system.cpu.dcache.overall_avg_miss_latency::total 68626.778167                       # average overall miss latency
system.cpu.dcache.blocked_cycles::no_mshrs      3896433                       # number of cycles access was blocked
system.cpu.dcache.blocked_cycles::no_targets          119                       # number of cycles access was blocked
system.cpu.dcache.blocked::no_mshrs            101159                       # number of cycles access was blocked
system.cpu.dcache.blocked::no_targets               1                       # number of cycles access was blocked
system.cpu.dcache.avg_blocked_cycles::no_mshrs    38.517907                       # average number of cycles each access was blocked
system.cpu.dcache.avg_blocked_cycles::no_targets          119                       # average number of cycles each access was blocked
system.cpu.dcache.writebacks::.writebacks       137398                       # number of writebacks
system.cpu.dcache.writebacks::total            137398                       # number of writebacks
system.cpu.dcache.demand_mshr_hits::.switch_cpus.data      2308151                       # number of demand (read+write) MSHR hits
system.cpu.dcache.demand_mshr_hits::total      2308151                       # number of demand (read+write) MSHR hits
system.cpu.dcache.overall_mshr_hits::.switch_cpus.data      2308151                       # number of overall MSHR hits
system.cpu.dcache.overall_mshr_hits::total      2308151                       # number of overall MSHR hits
system.cpu.dcache.demand_mshr_misses::.switch_cpus.data       754368                       # number of demand (read+write) MSHR misses
system.cpu.dcache.demand_mshr_misses::total       754368                       # number of demand (read+write) MSHR misses
system.cpu.dcache.overall_mshr_misses::.switch_cpus.data       754528                       # number of overall MSHR misses
system.cpu.dcache.overall_mshr_misses::total       754528                       # number of overall MSHR misses
system.cpu.dcache.demand_mshr_miss_latency::.switch_cpus.data  57306242401                       # number of demand (read+write) MSHR miss cycles
system.cpu.dcache.demand_mshr_miss_latency::total  57306242401                       # number of demand (read+write) MSHR miss cycles
system.cpu.dcache.overall_mshr_miss_latency::.switch_cpus.data  57316268401                       # number of overall MSHR miss cycles
system.cpu.dcache.overall_mshr_miss_latency::total  57316268401                       # number of overall MSHR miss cycles
system.cpu.dcache.demand_mshr_miss_rate::.switch_cpus.data     0.056665                       # mshr miss rate for demand accesses
system.cpu.dcache.demand_mshr_miss_rate::total     0.056665                       # mshr miss rate for demand accesses
system.cpu.dcache.overall_mshr_miss_rate::.switch_cpus.data     0.056607                       # mshr miss rate for overall accesses
system.cpu.dcache.overall_mshr_miss_rate::total     0.056607                       # mshr miss rate for overall accesses
system.cpu.dcache.demand_avg_mshr_miss_latency::.switch_cpus.data 75965.897812                       # average overall mshr miss latency
system.cpu.dcache.demand_avg_mshr_miss_latency::total 75965.897812                       # average overall mshr miss latency
system.cpu.dcache.overall_avg_mshr_miss_latency::.switch_cpus.data 75963.076786                       # average overall mshr miss latency
system.cpu.dcache.overall_avg_mshr_miss_latency::total 75963.076786                       # average overall mshr miss latency
system.cpu.dcache.replacements                 753506                       # number of replacements
system.cpu.dcache.ReadReq_hits::.cpu.data            3                       # number of ReadReq hits
system.cpu.dcache.ReadReq_hits::.switch_cpus.data      9047259                       # number of ReadReq hits
system.cpu.dcache.ReadReq_hits::total         9047262                       # number of ReadReq hits
system.cpu.dcache.ReadReq_misses::.cpu.data            2                       # number of ReadReq misses
system.cpu.dcache.ReadReq_misses::.switch_cpus.data      3015938                       # number of ReadReq misses
system.cpu.dcache.ReadReq_misses::total       3015940                       # number of ReadReq misses
system.cpu.dcache.ReadReq_miss_latency::.switch_cpus.data 206914687500                       # number of ReadReq miss cycles
system.cpu.dcache.ReadReq_miss_latency::total 206914687500                       # number of ReadReq miss cycles
system.cpu.dcache.ReadReq_accesses::.cpu.data            5                       # number of ReadReq accesses(hits+misses)
system.cpu.dcache.ReadReq_accesses::.switch_cpus.data     12063197                       # number of ReadReq accesses(hits+misses)
system.cpu.dcache.ReadReq_accesses::total     12063202                       # number of ReadReq accesses(hits+misses)
system.cpu.dcache.ReadReq_miss_rate::.cpu.data     0.400000                       # miss rate for ReadReq accesses
system.cpu.dcache.ReadReq_miss_rate::.switch_cpus.data     0.250012                       # miss rate for ReadReq accesses
system.cpu.dcache.ReadReq_miss_rate::total     0.250012                       # miss rate for ReadReq accesses
system.cpu.dcache.ReadReq_avg_miss_latency::.switch_cpus.data 68607.075974                       # average ReadReq miss latency
system.cpu.dcache.ReadReq_avg_miss_latency::total 68607.030478                       # average ReadReq miss latency
system.cpu.dcache.ReadReq_mshr_hits::.switch_cpus.data      2307936                       # number of ReadReq MSHR hits
system.cpu.dcache.ReadReq_mshr_hits::total      2307936                       # number of ReadReq MSHR hits
system.cpu.dcache.ReadReq_mshr_misses::.switch_cpus.data       708002                       # number of ReadReq MSHR misses
system.cpu.dcache.ReadReq_mshr_misses::total       708002                       # number of ReadReq MSHR misses
system.cpu.dcache.ReadReq_mshr_miss_latency::.switch_cpus.data  54079041000                       # number of ReadReq MSHR miss cycles
system.cpu.dcache.ReadReq_mshr_miss_latency::total  54079041000                       # number of ReadReq MSHR miss cycles
system.cpu.dcache.ReadReq_mshr_miss_rate::.switch_cpus.data     0.058691                       # mshr miss rate for ReadReq accesses
system.cpu.dcache.ReadReq_mshr_miss_rate::total     0.058691                       # mshr miss rate for ReadReq accesses
system.cpu.dcache.ReadReq_avg_mshr_miss_latency::.switch_cpus.data 76382.610501                       # average ReadReq mshr miss latency
system.cpu.dcache.ReadReq_avg_mshr_miss_latency::total 76382.610501                       # average ReadReq mshr miss latency
system.cpu.dcache.WriteReq_hits::.switch_cpus.data      1203012                       # number of WriteReq hits
system.cpu.dcache.WriteReq_hits::total        1203012                       # number of WriteReq hits
system.cpu.dcache.WriteReq_misses::.cpu.data            1                       # number of WriteReq misses
system.cpu.dcache.WriteReq_misses::.switch_cpus.data        46581                       # number of WriteReq misses
system.cpu.dcache.WriteReq_misses::total        46582                       # number of WriteReq misses
system.cpu.dcache.WriteReq_miss_latency::.switch_cpus.data   3284192898                       # number of WriteReq miss cycles
system.cpu.dcache.WriteReq_miss_latency::total   3284192898                       # number of WriteReq miss cycles
system.cpu.dcache.WriteReq_accesses::.cpu.data            1                       # number of WriteReq accesses(hits+misses)
system.cpu.dcache.WriteReq_accesses::.switch_cpus.data      1249593                       # number of WriteReq accesses(hits+misses)
system.cpu.dcache.WriteReq_accesses::total      1249594                       # number of WriteReq accesses(hits+misses)
system.cpu.dcache.WriteReq_miss_rate::.cpu.data            1                       # miss rate for WriteReq accesses
system.cpu.dcache.WriteReq_miss_rate::.switch_cpus.data     0.037277                       # miss rate for WriteReq accesses
system.cpu.dcache.WriteReq_miss_rate::total     0.037278                       # miss rate for WriteReq accesses
system.cpu.dcache.WriteReq_avg_miss_latency::.switch_cpus.data 70504.989116                       # average WriteReq miss latency
system.cpu.dcache.WriteReq_avg_miss_latency::total 70503.475548                       # average WriteReq miss latency
system.cpu.dcache.WriteReq_mshr_hits::.switch_cpus.data          215                       # number of WriteReq MSHR hits
system.cpu.dcache.WriteReq_mshr_hits::total          215                       # number of WriteReq MSHR hits
system.cpu.dcache.WriteReq_mshr_misses::.switch_cpus.data        46366                       # number of WriteReq MSHR misses
system.cpu.dcache.WriteReq_mshr_misses::total        46366                       # number of WriteReq MSHR misses
system.cpu.dcache.WriteReq_mshr_miss_latency::.switch_cpus.data   3227201401                       # number of WriteReq MSHR miss cycles
system.cpu.dcache.WriteReq_mshr_miss_latency::total   3227201401                       # number of WriteReq MSHR miss cycles
system.cpu.dcache.WriteReq_mshr_miss_rate::.switch_cpus.data     0.037105                       # mshr miss rate for WriteReq accesses
system.cpu.dcache.WriteReq_mshr_miss_rate::total     0.037105                       # mshr miss rate for WriteReq accesses
system.cpu.dcache.WriteReq_avg_mshr_miss_latency::.switch_cpus.data 69602.756352                       # average WriteReq mshr miss latency
system.cpu.dcache.WriteReq_avg_mshr_miss_latency::total 69602.756352                       # average WriteReq mshr miss latency
system.cpu.dcache.SoftPFReq_hits::.switch_cpus.data        15976                       # number of SoftPFReq hits
system.cpu.dcache.SoftPFReq_hits::total         15976                       # number of SoftPFReq hits
system.cpu.dcache.SoftPFReq_misses::.switch_cpus.data          406                       # number of SoftPFReq misses
system.cpu.dcache.SoftPFReq_misses::total          406                       # number of SoftPFReq misses
system.cpu.dcache.SoftPFReq_accesses::.switch_cpus.data        16382                       # number of SoftPFReq accesses(hits+misses)
system.cpu.dcache.SoftPFReq_accesses::total        16382                       # number of SoftPFReq accesses(hits+misses)
system.cpu.dcache.SoftPFReq_miss_rate::.switch_cpus.data     0.024783                       # miss rate for SoftPFReq accesses
system.cpu.dcache.SoftPFReq_miss_rate::total     0.024783                       # miss rate for SoftPFReq accesses
system.cpu.dcache.SoftPFReq_mshr_misses::.switch_cpus.data          160                       # number of SoftPFReq MSHR misses
system.cpu.dcache.SoftPFReq_mshr_misses::total          160                       # number of SoftPFReq MSHR misses
system.cpu.dcache.SoftPFReq_mshr_miss_latency::.switch_cpus.data     10026000                       # number of SoftPFReq MSHR miss cycles
system.cpu.dcache.SoftPFReq_mshr_miss_latency::total     10026000                       # number of SoftPFReq MSHR miss cycles
system.cpu.dcache.SoftPFReq_mshr_miss_rate::.switch_cpus.data     0.009767                       # mshr miss rate for SoftPFReq accesses
system.cpu.dcache.SoftPFReq_mshr_miss_rate::total     0.009767                       # mshr miss rate for SoftPFReq accesses
system.cpu.dcache.SoftPFReq_avg_mshr_miss_latency::.switch_cpus.data 62662.500000                       # average SoftPFReq mshr miss latency
system.cpu.dcache.SoftPFReq_avg_mshr_miss_latency::total 62662.500000                       # average SoftPFReq mshr miss latency
system.cpu.dcache.tags.pwrStateResidencyTicks::UNDEFINED 270804028915000                       # Cumulative time (in ticks) in various power states
system.cpu.dcache.tags.tagsinuse             0.138838                       # Cycle average of tags in use
system.cpu.dcache.tags.total_refs            11020780                       # Total number of references to valid blocks.
system.cpu.dcache.tags.sampled_refs            754530                       # Sample count of references to valid blocks.
system.cpu.dcache.tags.avg_refs             14.606152                       # Average number of references to valid blocks.
system.cpu.dcache.tags.warmup_cycle      270767280054500                       # Cycle when the warmup percentage was hit.
system.cpu.dcache.tags.occ_blocks::.cpu.data     0.000002                       # Average occupied blocks per requestor
system.cpu.dcache.tags.occ_blocks::.switch_cpus.data     0.138836                       # Average occupied blocks per requestor
system.cpu.dcache.tags.occ_percent::.cpu.data     0.000000                       # Average percentage of cache occupancy
system.cpu.dcache.tags.occ_percent::.switch_cpus.data     0.000136                       # Average percentage of cache occupancy
system.cpu.dcache.tags.occ_percent::total     0.000136                       # Average percentage of cache occupancy
system.cpu.dcache.tags.occ_task_id_blocks::1024         1024                       # Occupied blocks per task id
system.cpu.dcache.tags.age_task_id_blocks_1024::0          208                       # Occupied blocks per task id
system.cpu.dcache.tags.age_task_id_blocks_1024::1          813                       # Occupied blocks per task id
system.cpu.dcache.tags.age_task_id_blocks_1024::3            3                       # Occupied blocks per task id
system.cpu.dcache.tags.occ_task_id_percent::1024            1                       # Percentage of cache occupancy per task id
system.cpu.dcache.tags.tag_accesses          27412886                       # Number of tag accesses
system.cpu.dcache.tags.data_accesses         27412886                       # Number of data accesses

---------- End Simulation Statistics   ----------
