
---------- Begin Simulation Statistics ----------
final_tick                               1774424789000                       # Number of ticks from beginning of simulation (restored from checkpoints and never reset)
host_inst_rate                                  14491                       # Simulator instruction rate (inst/s)
host_mem_usage                                 886036                       # Number of bytes of host memory used
host_op_rate                                    27315                       # Simulator op (including micro ops) rate (op/s)
host_seconds                                   690.07                       # Real time elapsed on the host
host_tick_rate                               31593882                       # Simulator tick rate (ticks/s)
sim_freq                                 1000000000000                       # Frequency of simulated ticks
sim_insts                                    10000010                       # Number of instructions simulated
sim_ops                                      18849211                       # Number of ops (including micro ops) simulated
sim_seconds                                  0.021802                       # Number of seconds simulated
sim_ticks                                 21801930250                       # Number of ticks simulated
system.cpu.committedInsts                           8                       # Number of instructions committed
system.cpu.committedOps                            15                       # Number of ops (including micro ops) committed
system.cpu.dtb.rdAccesses                           3                       # TLB accesses on read requests
system.cpu.dtb.rdMisses                             0                       # TLB misses on read requests
system.cpu.dtb.wrAccesses                           0                       # TLB accesses on write requests
system.cpu.dtb.wrMisses                             0                       # TLB misses on write requests
system.cpu.idle_fraction                            0                       # Percentage of idle cycles
system.cpu.itb.rdAccesses                           0                       # TLB accesses on read requests
system.cpu.itb.rdMisses                             0                       # TLB misses on read requests
system.cpu.itb.wrAccesses                          12                       # TLB accesses on write requests
system.cpu.itb.wrMisses                             0                       # TLB misses on write requests
system.cpu.not_idle_fraction                        1                       # Percentage of non-idle cycles
system.cpu.numCycles                               19                       # number of cpu cycles simulated
system.cpu.numWorkItemsCompleted                    0                       # number of work items this cpu completed
system.cpu.numWorkItemsStarted                      0                       # number of work items this cpu started
system.cpu.num_busy_cycles                         19                       # Number of busy cycles
system.cpu.num_conditional_control_insts            0                       # number of instructions that are conditional controls
system.cpu.num_fp_alu_accesses                     11                       # Number of float alu accesses
system.cpu.num_fp_insts                            11                       # number of float instructions
system.cpu.num_fp_register_reads                   19                       # number of times the floating registers were read
system.cpu.num_fp_register_writes                  11                       # number of times the floating registers were written
system.cpu.num_func_calls                           0                       # number of times a function call or return occured
system.cpu.num_idle_cycles                          0                       # Number of idle cycles
system.cpu.num_int_alu_accesses                     7                       # Number of integer alu accesses
system.cpu.num_int_insts                            7                       # number of integer instructions
system.cpu.num_int_register_reads                  15                       # number of times the integer registers were read
system.cpu.num_int_register_writes                  4                       # number of times the integer registers were written
system.cpu.num_load_insts                           3                       # Number of load instructions
system.cpu.num_mem_refs                             3                       # number of memory refs
system.cpu.num_store_insts                          0                       # Number of store instructions
system.cpu.num_vec_alu_accesses                     0                       # Number of vector alu accesses
system.cpu.num_vec_insts                            0                       # number of vector instructions
system.cpu.num_vec_register_reads                   0                       # number of times the vector registers were read
system.cpu.num_vec_register_writes                  0                       # number of times the vector registers were written
system.cpu.op_class::No_OpClass                     0      0.00%      0.00% # Class of executed instruction
system.cpu.op_class::IntAlu                         6     40.00%     40.00% # Class of executed instruction
system.cpu.op_class::IntMult                        0      0.00%     40.00% # Class of executed instruction
system.cpu.op_class::IntDiv                         0      0.00%     40.00% # Class of executed instruction
system.cpu.op_class::FloatAdd                       1      6.67%     46.67% # Class of executed instruction
system.cpu.op_class::FloatCmp                       0      0.00%     46.67% # Class of executed instruction
system.cpu.op_class::FloatCvt                       0      0.00%     46.67% # Class of executed instruction
system.cpu.op_class::FloatMult                      0      0.00%     46.67% # Class of executed instruction
system.cpu.op_class::FloatMultAcc                   0      0.00%     46.67% # Class of executed instruction
system.cpu.op_class::FloatDiv                       0      0.00%     46.67% # Class of executed instruction
system.cpu.op_class::FloatMisc                      0      0.00%     46.67% # Class of executed instruction
system.cpu.op_class::FloatSqrt                      0      0.00%     46.67% # Class of executed instruction
system.cpu.op_class::SimdAdd                        0      0.00%     46.67% # Class of executed instruction
system.cpu.op_class::SimdAddAcc                     0      0.00%     46.67% # Class of executed instruction
system.cpu.op_class::SimdAlu                        0      0.00%     46.67% # Class of executed instruction
system.cpu.op_class::SimdCmp                        0      0.00%     46.67% # Class of executed instruction
system.cpu.op_class::SimdCvt                        0      0.00%     46.67% # Class of executed instruction
system.cpu.op_class::SimdMisc                       0      0.00%     46.67% # Class of executed instruction
system.cpu.op_class::SimdMult                       0      0.00%     46.67% # Class of executed instruction
system.cpu.op_class::SimdMultAcc                    0      0.00%     46.67% # Class of executed instruction
system.cpu.op_class::SimdShift                      0      0.00%     46.67% # Class of executed instruction
system.cpu.op_class::SimdShiftAcc                   0      0.00%     46.67% # Class of executed instruction
system.cpu.op_class::SimdDiv                        0      0.00%     46.67% # Class of executed instruction
system.cpu.op_class::SimdSqrt                       0      0.00%     46.67% # Class of executed instruction
system.cpu.op_class::SimdFloatAdd                   2     13.33%     60.00% # Class of executed instruction
system.cpu.op_class::SimdFloatAlu                   0      0.00%     60.00% # Class of executed instruction
system.cpu.op_class::SimdFloatCmp                   0      0.00%     60.00% # Class of executed instruction
system.cpu.op_class::SimdFloatCvt                   0      0.00%     60.00% # Class of executed instruction
system.cpu.op_class::SimdFloatDiv                   0      0.00%     60.00% # Class of executed instruction
system.cpu.op_class::SimdFloatMisc                  0      0.00%     60.00% # Class of executed instruction
system.cpu.op_class::SimdFloatMult                  3     20.00%     80.00% # Class of executed instruction
system.cpu.op_class::SimdFloatMultAcc               0      0.00%     80.00% # Class of executed instruction
system.cpu.op_class::SimdFloatSqrt                  0      0.00%     80.00% # Class of executed instruction
system.cpu.op_class::SimdReduceAdd                  0      0.00%     80.00% # Class of executed instruction
system.cpu.op_class::SimdReduceAlu                  0      0.00%     80.00% # Class of executed instruction
system.cpu.op_class::SimdReduceCmp                  0      0.00%     80.00% # Class of executed instruction
system.cpu.op_class::SimdFloatReduceAdd             0      0.00%     80.00% # Class of executed instruction
system.cpu.op_class::SimdFloatReduceCmp             0      0.00%     80.00% # Class of executed instruction
system.cpu.op_class::SimdAes                        0      0.00%     80.00% # Class of executed instruction
system.cpu.op_class::SimdAesMix                     0      0.00%     80.00% # Class of executed instruction
system.cpu.op_class::SimdSha1Hash                   0      0.00%     80.00% # Class of executed instruction
system.cpu.op_class::SimdSha1Hash2                  0      0.00%     80.00% # Class of executed instruction
system.cpu.op_class::SimdSha256Hash                 0      0.00%     80.00% # Class of executed instruction
system.cpu.op_class::SimdSha256Hash2                0      0.00%     80.00% # Class of executed instruction
system.cpu.op_class::SimdShaSigma2                  0      0.00%     80.00% # Class of executed instruction
system.cpu.op_class::SimdShaSigma3                  0      0.00%     80.00% # Class of executed instruction
system.cpu.op_class::SimdPredAlu                    0      0.00%     80.00% # Class of executed instruction
system.cpu.op_class::MemRead                        0      0.00%     80.00% # Class of executed instruction
system.cpu.op_class::MemWrite                       0      0.00%     80.00% # Class of executed instruction
system.cpu.op_class::FloatMemRead                   3     20.00%    100.00% # Class of executed instruction
system.cpu.op_class::FloatMemWrite                  0      0.00%    100.00% # Class of executed instruction
system.cpu.op_class::IprAccess                      0      0.00%    100.00% # Class of executed instruction
system.cpu.op_class::InstPrefetch                   0      0.00%    100.00% # Class of executed instruction
system.cpu.op_class::total                         15                       # Class of executed instruction
system.cpu.workload.numSyscalls                     0                       # Number of system calls
system.membus.snoop_filter.hit_multi_requests            0                       # Number of requests hitting in the snoop filter with multiple (>1) holders of the requested data.
system.membus.snoop_filter.hit_multi_snoops            0                       # Number of snoops hitting in the snoop filter with multiple (>1) holders of the requested data.
system.membus.snoop_filter.hit_single_requests       250139                       # Number of requests hitting in the snoop filter with a single holder of the requested data.
system.membus.snoop_filter.hit_single_snoops            0                       # Number of snoops hitting in the snoop filter with a single holder of the requested data.
system.membus.snoop_filter.tot_requests        503107                       # Total number of requests made to the snoop filter.
system.membus.snoop_filter.tot_snoops               0                       # Total number of snoops made to the snoop filter.
system.switch_cpus.branchPred.BTBCorrect            0                       # Number of correct BTB predictions (this stat may not work properly.
system.switch_cpus.branchPred.BTBHitPct      0.000000                       # BTB Hit Percentage
system.switch_cpus.branchPred.BTBHits               0                       # Number of BTB hits
system.switch_cpus.branchPred.BTBLookups      3682644                       # Number of BTB lookups
system.switch_cpus.branchPred.RASInCorrect            9                       # Number of incorrect RAS predictions.
system.switch_cpus.branchPred.condIncorrect         7351                       # Number of conditional branches incorrect
system.switch_cpus.branchPred.condPredicted      4032937                       # Number of conditional branches predicted
system.switch_cpus.branchPred.indirectHits      3155624                       # Number of indirect target hits.
system.switch_cpus.branchPred.indirectLookups      3682644                       # Number of indirect predictor lookups.
system.switch_cpus.branchPred.indirectMisses       527020                       # Number of indirect misses.
system.switch_cpus.branchPred.lookups         5026374                       # Number of BP lookups
system.switch_cpus.branchPred.usedRAS          493192                       # Number of times the RAS was used to get a target.
system.switch_cpus.branchPredindirectMispredicted         1680                       # Number of mispredicted indirect branches.
system.switch_cpus.cc_regfile_reads          14440983                       # number of cc regfile reads
system.switch_cpus.cc_regfile_writes         14511549                       # number of cc regfile writes
system.switch_cpus.commit.amos                      0                       # Number of atomic instructions committed
system.switch_cpus.commit.branchMispredicts         7402                       # The number of times a branch was mispredicted
system.switch_cpus.commit.branches            1162057                       # Number of branches committed
system.switch_cpus.commit.bw_lim_events       1544791                       # number cycles where commit BW limit reached
system.switch_cpus.commit.commitNonSpecStalls        23852                       # The number of times commit has been forced to stall to communicate backwards
system.switch_cpus.commit.commitSquashedInsts     33171535                       # The number of squashed insts skipped by commit
system.switch_cpus.commit.committedInsts     10000002                       # Number of instructions committed
system.switch_cpus.commit.committedOps       18849196                       # Number of ops (including micro ops) committed
system.switch_cpus.commit.committed_per_cycle::samples     39269053                       # Number of insts commited each cycle
system.switch_cpus.commit.committed_per_cycle::mean     0.480001                       # Number of insts commited each cycle
system.switch_cpus.commit.committed_per_cycle::stdev     1.690316                       # Number of insts commited each cycle
system.switch_cpus.commit.committed_per_cycle::underflows            0      0.00%      0.00% # Number of insts commited each cycle
system.switch_cpus.commit.committed_per_cycle::0     35268393     89.81%     89.81% # Number of insts commited each cycle
system.switch_cpus.commit.committed_per_cycle::1       794508      2.02%     91.84% # Number of insts commited each cycle
system.switch_cpus.commit.committed_per_cycle::2       374719      0.95%     92.79% # Number of insts commited each cycle
system.switch_cpus.commit.committed_per_cycle::3       561738      1.43%     94.22% # Number of insts commited each cycle
system.switch_cpus.commit.committed_per_cycle::4       445255      1.13%     95.35% # Number of insts commited each cycle
system.switch_cpus.commit.committed_per_cycle::5       201251      0.51%     95.87% # Number of insts commited each cycle
system.switch_cpus.commit.committed_per_cycle::6        74353      0.19%     96.06% # Number of insts commited each cycle
system.switch_cpus.commit.committed_per_cycle::7         4045      0.01%     96.07% # Number of insts commited each cycle
system.switch_cpus.commit.committed_per_cycle::8      1544791      3.93%    100.00% # Number of insts commited each cycle
system.switch_cpus.commit.committed_per_cycle::overflows            0      0.00%    100.00% # Number of insts commited each cycle
system.switch_cpus.commit.committed_per_cycle::min_value            0                       # Number of insts commited each cycle
system.switch_cpus.commit.committed_per_cycle::max_value            8                       # Number of insts commited each cycle
system.switch_cpus.commit.committed_per_cycle::total     39269053                       # Number of insts commited each cycle
system.switch_cpus.commit.fp_insts            7755697                       # Number of committed floating point instructions.
system.switch_cpus.commit.function_calls       133713                       # Number of function calls committed.
system.switch_cpus.commit.int_insts          14669480                       # Number of committed integer instructions.
system.switch_cpus.commit.loads               3342337                       # Number of loads committed
system.switch_cpus.commit.membars                   0                       # Number of memory barriers committed
system.switch_cpus.commit.op_class_0::No_OpClass         3302      0.02%      0.02% # Class of committed instruction
system.switch_cpus.commit.op_class_0::IntAlu     10301514     54.65%     54.67% # Class of committed instruction
system.switch_cpus.commit.op_class_0::IntMult       106274      0.56%     55.23% # Class of committed instruction
system.switch_cpus.commit.op_class_0::IntDiv            0      0.00%     55.23% # Class of committed instruction
system.switch_cpus.commit.op_class_0::FloatAdd       637733      3.38%     58.62% # Class of committed instruction
system.switch_cpus.commit.op_class_0::FloatCmp            0      0.00%     58.62% # Class of committed instruction
system.switch_cpus.commit.op_class_0::FloatCvt            0      0.00%     58.62% # Class of committed instruction
system.switch_cpus.commit.op_class_0::FloatMult            0      0.00%     58.62% # Class of committed instruction
system.switch_cpus.commit.op_class_0::FloatMultAcc            0      0.00%     58.62% # Class of committed instruction
system.switch_cpus.commit.op_class_0::FloatDiv            0      0.00%     58.62% # Class of committed instruction
system.switch_cpus.commit.op_class_0::FloatMisc            0      0.00%     58.62% # Class of committed instruction
system.switch_cpus.commit.op_class_0::FloatSqrt            0      0.00%     58.62% # Class of committed instruction
system.switch_cpus.commit.op_class_0::SimdAdd          216      0.00%     58.62% # Class of committed instruction
system.switch_cpus.commit.op_class_0::SimdAddAcc            0      0.00%     58.62% # Class of committed instruction
system.switch_cpus.commit.op_class_0::SimdAlu       216430      1.15%     59.77% # Class of committed instruction
system.switch_cpus.commit.op_class_0::SimdCmp            0      0.00%     59.77% # Class of committed instruction
system.switch_cpus.commit.op_class_0::SimdCvt         2916      0.02%     59.78% # Class of committed instruction
system.switch_cpus.commit.op_class_0::SimdMisc       269023      1.43%     61.21% # Class of committed instruction
system.switch_cpus.commit.op_class_0::SimdMult            0      0.00%     61.21% # Class of committed instruction
system.switch_cpus.commit.op_class_0::SimdMultAcc            0      0.00%     61.21% # Class of committed instruction
system.switch_cpus.commit.op_class_0::SimdShift            0      0.00%     61.21% # Class of committed instruction
system.switch_cpus.commit.op_class_0::SimdShiftAcc            0      0.00%     61.21% # Class of committed instruction
system.switch_cpus.commit.op_class_0::SimdDiv            0      0.00%     61.21% # Class of committed instruction
system.switch_cpus.commit.op_class_0::SimdSqrt            0      0.00%     61.21% # Class of committed instruction
system.switch_cpus.commit.op_class_0::SimdFloatAdd       956439      5.07%     66.28% # Class of committed instruction
system.switch_cpus.commit.op_class_0::SimdFloatAlu            0      0.00%     66.28% # Class of committed instruction
system.switch_cpus.commit.op_class_0::SimdFloatCmp            0      0.00%     66.28% # Class of committed instruction
system.switch_cpus.commit.op_class_0::SimdFloatCvt       159408      0.85%     67.13% # Class of committed instruction
system.switch_cpus.commit.op_class_0::SimdFloatDiv        53135      0.28%     67.41% # Class of committed instruction
system.switch_cpus.commit.op_class_0::SimdFloatMisc            0      0.00%     67.41% # Class of committed instruction
system.switch_cpus.commit.op_class_0::SimdFloatMult       850169      4.51%     71.92% # Class of committed instruction
system.switch_cpus.commit.op_class_0::SimdFloatMultAcc            0      0.00%     71.92% # Class of committed instruction
system.switch_cpus.commit.op_class_0::SimdFloatSqrt            0      0.00%     71.92% # Class of committed instruction
system.switch_cpus.commit.op_class_0::SimdReduceAdd            0      0.00%     71.92% # Class of committed instruction
system.switch_cpus.commit.op_class_0::SimdReduceAlu            0      0.00%     71.92% # Class of committed instruction
system.switch_cpus.commit.op_class_0::SimdReduceCmp            0      0.00%     71.92% # Class of committed instruction
system.switch_cpus.commit.op_class_0::SimdFloatReduceAdd            0      0.00%     71.92% # Class of committed instruction
system.switch_cpus.commit.op_class_0::SimdFloatReduceCmp            0      0.00%     71.92% # Class of committed instruction
system.switch_cpus.commit.op_class_0::SimdAes            0      0.00%     71.92% # Class of committed instruction
system.switch_cpus.commit.op_class_0::SimdAesMix            0      0.00%     71.92% # Class of committed instruction
system.switch_cpus.commit.op_class_0::SimdSha1Hash            0      0.00%     71.92% # Class of committed instruction
system.switch_cpus.commit.op_class_0::SimdSha1Hash2            0      0.00%     71.92% # Class of committed instruction
system.switch_cpus.commit.op_class_0::SimdSha256Hash            0      0.00%     71.92% # Class of committed instruction
system.switch_cpus.commit.op_class_0::SimdSha256Hash2            0      0.00%     71.92% # Class of committed instruction
system.switch_cpus.commit.op_class_0::SimdShaSigma2            0      0.00%     71.92% # Class of committed instruction
system.switch_cpus.commit.op_class_0::SimdShaSigma3            0      0.00%     71.92% # Class of committed instruction
system.switch_cpus.commit.op_class_0::SimdPredAlu            0      0.00%     71.92% # Class of committed instruction
system.switch_cpus.commit.op_class_0::MemRead      1115630      5.92%     77.84% # Class of committed instruction
system.switch_cpus.commit.op_class_0::MemWrite       842245      4.47%     82.31% # Class of committed instruction
system.switch_cpus.commit.op_class_0::FloatMemRead      2226707     11.81%     94.12% # Class of committed instruction
system.switch_cpus.commit.op_class_0::FloatMemWrite      1108055      5.88%    100.00% # Class of committed instruction
system.switch_cpus.commit.op_class_0::IprAccess            0      0.00%    100.00% # Class of committed instruction
system.switch_cpus.commit.op_class_0::InstPrefetch            0      0.00%    100.00% # Class of committed instruction
system.switch_cpus.commit.op_class_0::total     18849196                       # Class of committed instruction
system.switch_cpus.commit.refs                5292637                       # Number of memory references committed
system.switch_cpus.commit.swp_count                 0                       # Number of s/w prefetches committed
system.switch_cpus.commit.vec_insts                 0                       # Number of committed Vector instructions.
system.switch_cpus.committedInsts            10000002                       # Number of Instructions Simulated
system.switch_cpus.committedOps              18849196                       # Number of Ops (including micro ops) Simulated
system.switch_cpus.cpi                       4.360383                       # CPI: Cycles Per Instruction
system.switch_cpus.cpi_total                 4.360383                       # CPI: Total CPI of All Threads
system.switch_cpus.decode.BlockedCycles      30239423                       # Number of cycles decode is blocked
system.switch_cpus.decode.DecodedInsts       64779240                       # Number of instructions handled by decode
system.switch_cpus.decode.IdleCycles          3607301                       # Number of cycles decode is idle
system.switch_cpus.decode.RunCycles           8519404                       # Number of cycles decode is running
system.switch_cpus.decode.SquashCycles         389333                       # Number of cycles decode is squashing
system.switch_cpus.decode.UnblockCycles        820611                       # Number of cycles decode is unblocking
system.switch_cpus.dtb.rdAccesses            12377217                       # TLB accesses on read requests
system.switch_cpus.dtb.rdMisses                  2077                       # TLB misses on read requests
system.switch_cpus.dtb.wrAccesses            10605395                       # TLB accesses on write requests
system.switch_cpus.dtb.wrMisses                  1998                       # TLB misses on write requests
system.switch_cpus.fetch.Branches             5026374                       # Number of branches that fetch encountered
system.switch_cpus.fetch.CacheLines           6314886                       # Number of cache lines fetched
system.switch_cpus.fetch.Cycles              36615248                       # Number of cycles fetch has run and was not squashing or blocked
system.switch_cpus.fetch.IcacheSquashes         46593                       # Number of outstanding Icache misses that were squashed
system.switch_cpus.fetch.Insts               35719410                       # Number of instructions fetch has processed
system.switch_cpus.fetch.MiscStallCycles           51                       # Number of cycles fetch has spent waiting on interrupts, or bad addresses, or out of MSHRs
system.switch_cpus.fetch.PendingTrapStallCycles          481                       # Number of stall cycles due to pending traps
system.switch_cpus.fetch.SquashCycles          778666                       # Number of cycles fetch has spent squashing
system.switch_cpus.fetch.branchRate          0.115274                       # Number of branch fetches per cycle
system.switch_cpus.fetch.icacheStallCycles      6570968                       # Number of cycles fetch is stalled on an Icache miss
system.switch_cpus.fetch.predictedBranches      3648816                       # Number of branches that fetch has predicted taken
system.switch_cpus.fetch.rate                0.819180                       # Number of inst fetches per cycle
system.switch_cpus.fetch.rateDist::samples     43576081                       # Number of instructions fetched each cycle (Total)
system.switch_cpus.fetch.rateDist::mean      1.772069                       # Number of instructions fetched each cycle (Total)
system.switch_cpus.fetch.rateDist::stdev     3.046504                       # Number of instructions fetched each cycle (Total)
system.switch_cpus.fetch.rateDist::underflows            0      0.00%      0.00% # Number of instructions fetched each cycle (Total)
system.switch_cpus.fetch.rateDist::0         30897521     70.90%     70.90% # Number of instructions fetched each cycle (Total)
system.switch_cpus.fetch.rateDist::1           702027      1.61%     72.52% # Number of instructions fetched each cycle (Total)
system.switch_cpus.fetch.rateDist::2           737845      1.69%     74.21% # Number of instructions fetched each cycle (Total)
system.switch_cpus.fetch.rateDist::3           987367      2.27%     76.47% # Number of instructions fetched each cycle (Total)
system.switch_cpus.fetch.rateDist::4          1260859      2.89%     79.37% # Number of instructions fetched each cycle (Total)
system.switch_cpus.fetch.rateDist::5           779588      1.79%     81.16% # Number of instructions fetched each cycle (Total)
system.switch_cpus.fetch.rateDist::6           901483      2.07%     83.23% # Number of instructions fetched each cycle (Total)
system.switch_cpus.fetch.rateDist::7           745400      1.71%     84.94% # Number of instructions fetched each cycle (Total)
system.switch_cpus.fetch.rateDist::8          6563991     15.06%    100.00% # Number of instructions fetched each cycle (Total)
system.switch_cpus.fetch.rateDist::overflows            0      0.00%    100.00% # Number of instructions fetched each cycle (Total)
system.switch_cpus.fetch.rateDist::min_value            0                       # Number of instructions fetched each cycle (Total)
system.switch_cpus.fetch.rateDist::max_value            8                       # Number of instructions fetched each cycle (Total)
system.switch_cpus.fetch.rateDist::total     43576081                       # Number of instructions fetched each cycle (Total)
system.switch_cpus.fp_regfile_reads          16037179                       # number of floating regfile reads
system.switch_cpus.fp_regfile_writes         12337033                       # number of floating regfile writes
system.switch_cpus.idleCycles                   27759                       # Total number of cycles that the CPU has spent unscheduled due to idling
system.switch_cpus.iew.branchMispredicts         9975                       # Number of branch mispredicts detected at execute
system.switch_cpus.iew.exec_branches          3500223                       # Number of branches executed
system.switch_cpus.iew.exec_nop                     0                       # number of nop insts executed
system.switch_cpus.iew.exec_rate             1.313567                       # Inst execution rate
system.switch_cpus.iew.exec_refs             23365427                       # number of memory reference insts executed
system.switch_cpus.iew.exec_stores           10605395                       # Number of stores executed
system.switch_cpus.iew.exec_swp                     0                       # number of swp insts executed
system.switch_cpus.iew.iewBlockCycles         7458057                       # Number of cycles IEW is blocking
system.switch_cpus.iew.iewDispLoadInsts      12602036                       # Number of dispatched load instructions
system.switch_cpus.iew.iewDispNonSpecInsts            0                       # Number of dispatched non-speculative instructions
system.switch_cpus.iew.iewDispSquashedInsts          136                       # Number of squashed instructions skipped by dispatch
system.switch_cpus.iew.iewDispStoreInsts     13733228                       # Number of dispatched store instructions
system.switch_cpus.iew.iewDispatchedInsts     61090802                       # Number of instructions dispatched to IQ
system.switch_cpus.iew.iewExecLoadInsts      12760032                       # Number of load instructions executed
system.switch_cpus.iew.iewExecSquashedInsts       423598                       # Number of squashed instructions skipped in execute
system.switch_cpus.iew.iewExecutedInsts      57276552                       # Number of executed instructions
system.switch_cpus.iew.iewIQFullEvents          30224                       # Number of times the IQ has become full, causing a stall
system.switch_cpus.iew.iewIdleCycles                0                       # Number of cycles IEW is idle
system.switch_cpus.iew.iewLSQFullEvents       1425201                       # Number of times the LSQ has become full, causing a stall
system.switch_cpus.iew.iewSquashCycles         389333                       # Number of cycles IEW is squashing
system.switch_cpus.iew.iewUnblockCycles       1342239                       # Number of cycles IEW is unblocking
system.switch_cpus.iew.lsq.thread0.blockedLoads            0                       # Number of blocked loads due to partial load-store forwarding
system.switch_cpus.iew.lsq.thread0.cacheBlocked        24662                       # Number of times an access to memory failed due to the cache being blocked
system.switch_cpus.iew.lsq.thread0.forwLoads       321997                       # Number of loads that had data forwarded from stores
system.switch_cpus.iew.lsq.thread0.ignoredResponses           34                       # Number of memory responses ignored because the instruction is squashed
system.switch_cpus.iew.lsq.thread0.invAddrLoads            0                       # Number of loads ignored due to an invalid address
system.switch_cpus.iew.lsq.thread0.invAddrSwpfs            0                       # Number of software prefetches ignored due to an invalid address
system.switch_cpus.iew.lsq.thread0.memOrderViolation          334                       # Number of memory ordering violations
system.switch_cpus.iew.lsq.thread0.rescheduledLoads            5                       # Number of loads that were rescheduled
system.switch_cpus.iew.lsq.thread0.squashedLoads      9259683                       # Number of loads squashed
system.switch_cpus.iew.lsq.thread0.squashedStores     11782927                       # Number of stores squashed
system.switch_cpus.iew.memOrderViolationEvents          334                       # Number of memory order violations
system.switch_cpus.iew.predictedNotTakenIncorrect         3458                       # Number of branches that were predicted not taken incorrectly
system.switch_cpus.iew.predictedTakenIncorrect         6517                       # Number of branches that were predicted taken incorrectly
system.switch_cpus.iew.wb_consumers          42221032                       # num instructions consuming a value
system.switch_cpus.iew.wb_count              52851748                       # cumulative count of insts written-back
system.switch_cpus.iew.wb_fanout             0.719013                       # average fanout of values written-back
system.switch_cpus.iew.wb_producers          30357476                       # num instructions producing a value
system.switch_cpus.iew.wb_rate               1.212089                       # insts written-back per cycle
system.switch_cpus.iew.wb_sent               56277387                       # cumulative count of insts sent to commit
system.switch_cpus.int_regfile_reads         76789440                       # number of integer regfile reads
system.switch_cpus.int_regfile_writes        26464508                       # number of integer regfile writes
system.switch_cpus.ipc                       0.229338                       # IPC: Instructions Per Cycle
system.switch_cpus.ipc_total                 0.229338                       # IPC: Total IPC of All Threads
system.switch_cpus.iq.FU_type_0::No_OpClass      3292520      5.71%      5.71% # Type of FU issued
system.switch_cpus.iq.FU_type_0::IntAlu      27629935     47.89%     53.59% # Type of FU issued
system.switch_cpus.iq.FU_type_0::IntMult       106274      0.18%     53.78% # Type of FU issued
system.switch_cpus.iq.FU_type_0::IntDiv             0      0.00%     53.78% # Type of FU issued
system.switch_cpus.iq.FU_type_0::FloatAdd       639125      1.11%     54.88% # Type of FU issued
system.switch_cpus.iq.FU_type_0::FloatCmp            0      0.00%     54.88% # Type of FU issued
system.switch_cpus.iq.FU_type_0::FloatCvt            0      0.00%     54.88% # Type of FU issued
system.switch_cpus.iq.FU_type_0::FloatMult            0      0.00%     54.88% # Type of FU issued
system.switch_cpus.iq.FU_type_0::FloatMultAcc            0      0.00%     54.88% # Type of FU issued
system.switch_cpus.iq.FU_type_0::FloatDiv            0      0.00%     54.88% # Type of FU issued
system.switch_cpus.iq.FU_type_0::FloatMisc            0      0.00%     54.88% # Type of FU issued
system.switch_cpus.iq.FU_type_0::FloatSqrt            0      0.00%     54.88% # Type of FU issued
system.switch_cpus.iq.FU_type_0::SimdAdd          224      0.00%     54.88% # Type of FU issued
system.switch_cpus.iq.FU_type_0::SimdAddAcc            0      0.00%     54.88% # Type of FU issued
system.switch_cpus.iq.FU_type_0::SimdAlu       216766      0.38%     55.26% # Type of FU issued
system.switch_cpus.iq.FU_type_0::SimdCmp            0      0.00%     55.26% # Type of FU issued
system.switch_cpus.iq.FU_type_0::SimdCvt         2972      0.01%     55.26% # Type of FU issued
system.switch_cpus.iq.FU_type_0::SimdMisc       269086      0.47%     55.73% # Type of FU issued
system.switch_cpus.iq.FU_type_0::SimdMult            0      0.00%     55.73% # Type of FU issued
system.switch_cpus.iq.FU_type_0::SimdMultAcc            0      0.00%     55.73% # Type of FU issued
system.switch_cpus.iq.FU_type_0::SimdShift            0      0.00%     55.73% # Type of FU issued
system.switch_cpus.iq.FU_type_0::SimdShiftAcc            0      0.00%     55.73% # Type of FU issued
system.switch_cpus.iq.FU_type_0::SimdDiv            0      0.00%     55.73% # Type of FU issued
system.switch_cpus.iq.FU_type_0::SimdSqrt            0      0.00%     55.73% # Type of FU issued
system.switch_cpus.iq.FU_type_0::SimdFloatAdd       956439      1.66%     57.39% # Type of FU issued
system.switch_cpus.iq.FU_type_0::SimdFloatAlu            0      0.00%     57.39% # Type of FU issued
system.switch_cpus.iq.FU_type_0::SimdFloatCmp            0      0.00%     57.39% # Type of FU issued
system.switch_cpus.iq.FU_type_0::SimdFloatCvt       159408      0.28%     57.66% # Type of FU issued
system.switch_cpus.iq.FU_type_0::SimdFloatDiv        53135      0.09%     57.76% # Type of FU issued
system.switch_cpus.iq.FU_type_0::SimdFloatMisc            0      0.00%     57.76% # Type of FU issued
system.switch_cpus.iq.FU_type_0::SimdFloatMult       850169      1.47%     59.23% # Type of FU issued
system.switch_cpus.iq.FU_type_0::SimdFloatMultAcc            0      0.00%     59.23% # Type of FU issued
system.switch_cpus.iq.FU_type_0::SimdFloatSqrt            0      0.00%     59.23% # Type of FU issued
system.switch_cpus.iq.FU_type_0::SimdReduceAdd            0      0.00%     59.23% # Type of FU issued
system.switch_cpus.iq.FU_type_0::SimdReduceAlu            0      0.00%     59.23% # Type of FU issued
system.switch_cpus.iq.FU_type_0::SimdReduceCmp            0      0.00%     59.23% # Type of FU issued
system.switch_cpus.iq.FU_type_0::SimdFloatReduceAdd            0      0.00%     59.23% # Type of FU issued
system.switch_cpus.iq.FU_type_0::SimdFloatReduceCmp            0      0.00%     59.23% # Type of FU issued
system.switch_cpus.iq.FU_type_0::SimdAes            0      0.00%     59.23% # Type of FU issued
system.switch_cpus.iq.FU_type_0::SimdAesMix            0      0.00%     59.23% # Type of FU issued
system.switch_cpus.iq.FU_type_0::SimdSha1Hash            0      0.00%     59.23% # Type of FU issued
system.switch_cpus.iq.FU_type_0::SimdSha1Hash2            0      0.00%     59.23% # Type of FU issued
system.switch_cpus.iq.FU_type_0::SimdSha256Hash            0      0.00%     59.23% # Type of FU issued
system.switch_cpus.iq.FU_type_0::SimdSha256Hash2            0      0.00%     59.23% # Type of FU issued
system.switch_cpus.iq.FU_type_0::SimdShaSigma2            0      0.00%     59.23% # Type of FU issued
system.switch_cpus.iq.FU_type_0::SimdShaSigma3            0      0.00%     59.23% # Type of FU issued
system.switch_cpus.iq.FU_type_0::SimdPredAlu            0      0.00%     59.23% # Type of FU issued
system.switch_cpus.iq.FU_type_0::MemRead      3658173      6.34%     65.57% # Type of FU issued
system.switch_cpus.iq.FU_type_0::MemWrite      3730944      6.47%     72.04% # Type of FU issued
system.switch_cpus.iq.FU_type_0::FloatMemRead      9259670     16.05%     88.08% # Type of FU issued
system.switch_cpus.iq.FU_type_0::FloatMemWrite      6875315     11.92%    100.00% # Type of FU issued
system.switch_cpus.iq.FU_type_0::IprAccess            0      0.00%    100.00% # Type of FU issued
system.switch_cpus.iq.FU_type_0::InstPrefetch            0      0.00%    100.00% # Type of FU issued
system.switch_cpus.iq.FU_type_0::total       57700155                       # Type of FU issued
system.switch_cpus.iq.fp_alu_accesses        22799775                       # Number of floating point alu accesses
system.switch_cpus.iq.fp_inst_queue_reads     43415292                       # Number of floating instruction queue reads
system.switch_cpus.iq.fp_inst_queue_wakeup_accesses     19504162                       # Number of floating instruction queue wakeup accesses
system.switch_cpus.iq.fp_inst_queue_writes     38364883                       # Number of floating instruction queue writes
system.switch_cpus.iq.fu_busy_cnt             3099304                       # FU busy when requested
system.switch_cpus.iq.fu_busy_rate           0.053714                       # FU busy rate (busy events/executed inst)
system.switch_cpus.iq.fu_full::No_OpClass            0      0.00%      0.00% # attempts to use FU when none available
system.switch_cpus.iq.fu_full::IntAlu          181842      5.87%      5.87% # attempts to use FU when none available
system.switch_cpus.iq.fu_full::IntMult              0      0.00%      5.87% # attempts to use FU when none available
system.switch_cpus.iq.fu_full::IntDiv               0      0.00%      5.87% # attempts to use FU when none available
system.switch_cpus.iq.fu_full::FloatAdd             0      0.00%      5.87% # attempts to use FU when none available
system.switch_cpus.iq.fu_full::FloatCmp             0      0.00%      5.87% # attempts to use FU when none available
system.switch_cpus.iq.fu_full::FloatCvt             0      0.00%      5.87% # attempts to use FU when none available
system.switch_cpus.iq.fu_full::FloatMult            0      0.00%      5.87% # attempts to use FU when none available
system.switch_cpus.iq.fu_full::FloatMultAcc            0      0.00%      5.87% # attempts to use FU when none available
system.switch_cpus.iq.fu_full::FloatDiv             0      0.00%      5.87% # attempts to use FU when none available
system.switch_cpus.iq.fu_full::FloatMisc            0      0.00%      5.87% # attempts to use FU when none available
system.switch_cpus.iq.fu_full::FloatSqrt            0      0.00%      5.87% # attempts to use FU when none available
system.switch_cpus.iq.fu_full::SimdAdd              0      0.00%      5.87% # attempts to use FU when none available
system.switch_cpus.iq.fu_full::SimdAddAcc            0      0.00%      5.87% # attempts to use FU when none available
system.switch_cpus.iq.fu_full::SimdAlu            437      0.01%      5.88% # attempts to use FU when none available
system.switch_cpus.iq.fu_full::SimdCmp              0      0.00%      5.88% # attempts to use FU when none available
system.switch_cpus.iq.fu_full::SimdCvt              0      0.00%      5.88% # attempts to use FU when none available
system.switch_cpus.iq.fu_full::SimdMisc           322      0.01%      5.89% # attempts to use FU when none available
system.switch_cpus.iq.fu_full::SimdMult             0      0.00%      5.89% # attempts to use FU when none available
system.switch_cpus.iq.fu_full::SimdMultAcc            0      0.00%      5.89% # attempts to use FU when none available
system.switch_cpus.iq.fu_full::SimdShift            0      0.00%      5.89% # attempts to use FU when none available
system.switch_cpus.iq.fu_full::SimdShiftAcc            0      0.00%      5.89% # attempts to use FU when none available
system.switch_cpus.iq.fu_full::SimdDiv              0      0.00%      5.89% # attempts to use FU when none available
system.switch_cpus.iq.fu_full::SimdSqrt             0      0.00%      5.89% # attempts to use FU when none available
system.switch_cpus.iq.fu_full::SimdFloatAdd            0      0.00%      5.89% # attempts to use FU when none available
system.switch_cpus.iq.fu_full::SimdFloatAlu            0      0.00%      5.89% # attempts to use FU when none available
system.switch_cpus.iq.fu_full::SimdFloatCmp            0      0.00%      5.89% # attempts to use FU when none available
system.switch_cpus.iq.fu_full::SimdFloatCvt            0      0.00%      5.89% # attempts to use FU when none available
system.switch_cpus.iq.fu_full::SimdFloatDiv            0      0.00%      5.89% # attempts to use FU when none available
system.switch_cpus.iq.fu_full::SimdFloatMisc            0      0.00%      5.89% # attempts to use FU when none available
system.switch_cpus.iq.fu_full::SimdFloatMult            0      0.00%      5.89% # attempts to use FU when none available
system.switch_cpus.iq.fu_full::SimdFloatMultAcc            0      0.00%      5.89% # attempts to use FU when none available
system.switch_cpus.iq.fu_full::SimdFloatSqrt            0      0.00%      5.89% # attempts to use FU when none available
system.switch_cpus.iq.fu_full::SimdReduceAdd            0      0.00%      5.89% # attempts to use FU when none available
system.switch_cpus.iq.fu_full::SimdReduceAlu            0      0.00%      5.89% # attempts to use FU when none available
system.switch_cpus.iq.fu_full::SimdReduceCmp            0      0.00%      5.89% # attempts to use FU when none available
system.switch_cpus.iq.fu_full::SimdFloatReduceAdd            0      0.00%      5.89% # attempts to use FU when none available
system.switch_cpus.iq.fu_full::SimdFloatReduceCmp            0      0.00%      5.89% # attempts to use FU when none available
system.switch_cpus.iq.fu_full::SimdAes              0      0.00%      5.89% # attempts to use FU when none available
system.switch_cpus.iq.fu_full::SimdAesMix            0      0.00%      5.89% # attempts to use FU when none available
system.switch_cpus.iq.fu_full::SimdSha1Hash            0      0.00%      5.89% # attempts to use FU when none available
system.switch_cpus.iq.fu_full::SimdSha1Hash2            0      0.00%      5.89% # attempts to use FU when none available
system.switch_cpus.iq.fu_full::SimdSha256Hash            0      0.00%      5.89% # attempts to use FU when none available
system.switch_cpus.iq.fu_full::SimdSha256Hash2            0      0.00%      5.89% # attempts to use FU when none available
system.switch_cpus.iq.fu_full::SimdShaSigma2            0      0.00%      5.89% # attempts to use FU when none available
system.switch_cpus.iq.fu_full::SimdShaSigma3            0      0.00%      5.89% # attempts to use FU when none available
system.switch_cpus.iq.fu_full::SimdPredAlu            0      0.00%      5.89% # attempts to use FU when none available
system.switch_cpus.iq.fu_full::MemRead         202697      6.54%     12.43% # attempts to use FU when none available
system.switch_cpus.iq.fu_full::MemWrite        472968     15.26%     27.69% # attempts to use FU when none available
system.switch_cpus.iq.fu_full::FloatMemRead      1664469     53.70%     81.40% # attempts to use FU when none available
system.switch_cpus.iq.fu_full::FloatMemWrite       576569     18.60%    100.00% # attempts to use FU when none available
system.switch_cpus.iq.fu_full::IprAccess            0      0.00%    100.00% # attempts to use FU when none available
system.switch_cpus.iq.fu_full::InstPrefetch            0      0.00%    100.00% # attempts to use FU when none available
system.switch_cpus.iq.int_alu_accesses       34707164                       # Number of integer alu accesses
system.switch_cpus.iq.int_inst_queue_reads    118720566                       # Number of integer instruction queue reads
system.switch_cpus.iq.int_inst_queue_wakeup_accesses     33347586                       # Number of integer instruction queue wakeup accesses
system.switch_cpus.iq.int_inst_queue_writes     64967793                       # Number of integer instruction queue writes
system.switch_cpus.iq.iqInstsAdded           60804514                       # Number of instructions added to the IQ (excludes non-spec)
system.switch_cpus.iq.iqInstsIssued          57700155                       # Number of instructions issued
system.switch_cpus.iq.iqNonSpecInstsAdded       286288                       # Number of non-speculative instructions added to the IQ
system.switch_cpus.iq.iqSquashedInstsExamined     42241542                       # Number of squashed instructions iterated over during squash; mainly for profiling
system.switch_cpus.iq.iqSquashedInstsIssued        60168                       # Number of squashed instructions issued
system.switch_cpus.iq.iqSquashedNonSpecRemoved       262436                       # Number of squashed non-spec instructions that were removed
system.switch_cpus.iq.iqSquashedOperandsExamined     16667979                       # Number of squashed operands that are examined and possibly removed from graph
system.switch_cpus.iq.issued_per_cycle::samples     43576081                       # Number of insts issued each cycle
system.switch_cpus.iq.issued_per_cycle::mean     1.324124                       # Number of insts issued each cycle
system.switch_cpus.iq.issued_per_cycle::stdev     2.374435                       # Number of insts issued each cycle
system.switch_cpus.iq.issued_per_cycle::underflows            0      0.00%      0.00% # Number of insts issued each cycle
system.switch_cpus.iq.issued_per_cycle::0     30920009     70.96%     70.96% # Number of insts issued each cycle
system.switch_cpus.iq.issued_per_cycle::1      1205388      2.77%     73.72% # Number of insts issued each cycle
system.switch_cpus.iq.issued_per_cycle::2      1660693      3.81%     77.53% # Number of insts issued each cycle
system.switch_cpus.iq.issued_per_cycle::3      1272318      2.92%     80.45% # Number of insts issued each cycle
system.switch_cpus.iq.issued_per_cycle::4      2014765      4.62%     85.08% # Number of insts issued each cycle
system.switch_cpus.iq.issued_per_cycle::5      1817400      4.17%     89.25% # Number of insts issued each cycle
system.switch_cpus.iq.issued_per_cycle::6      2172092      4.98%     94.23% # Number of insts issued each cycle
system.switch_cpus.iq.issued_per_cycle::7       929513      2.13%     96.37% # Number of insts issued each cycle
system.switch_cpus.iq.issued_per_cycle::8      1583903      3.63%    100.00% # Number of insts issued each cycle
system.switch_cpus.iq.issued_per_cycle::overflows            0      0.00%    100.00% # Number of insts issued each cycle
system.switch_cpus.iq.issued_per_cycle::min_value            0                       # Number of insts issued each cycle
system.switch_cpus.iq.issued_per_cycle::max_value            8                       # Number of insts issued each cycle
system.switch_cpus.iq.issued_per_cycle::total     43576081                       # Number of insts issued each cycle
system.switch_cpus.iq.rate                   1.323282                       # Inst issue rate
system.switch_cpus.iq.vec_alu_accesses              0                       # Number of vector alu accesses
system.switch_cpus.iq.vec_inst_queue_reads            0                       # Number of vector instruction queue reads
system.switch_cpus.iq.vec_inst_queue_wakeup_accesses            0                       # Number of vector instruction queue wakeup accesses
system.switch_cpus.iq.vec_inst_queue_writes            0                       # Number of vector instruction queue writes
system.switch_cpus.itb.rdAccesses                   0                       # TLB accesses on read requests
system.switch_cpus.itb.rdMisses                     0                       # TLB misses on read requests
system.switch_cpus.itb.wrAccesses             6314968                       # TLB accesses on write requests
system.switch_cpus.itb.wrMisses                   122                       # TLB misses on write requests
system.switch_cpus.memDep0.conflictingLoads        14381                       # Number of conflicting loads.
system.switch_cpus.memDep0.conflictingStores      3382406                       # Number of conflicting stores.
system.switch_cpus.memDep0.insertedLoads     12602036                       # Number of loads inserted to the mem dependence unit.
system.switch_cpus.memDep0.insertedStores     13733228                       # Number of stores inserted to the mem dependence unit.
system.switch_cpus.misc_regfile_reads        31198103                       # number of misc regfile reads
system.switch_cpus.misc_regfile_writes              1                       # number of misc regfile writes
system.switch_cpus.numCycles                 43603840                       # number of cpu cycles simulated
system.switch_cpus.numWorkItemsCompleted            0                       # number of work items this cpu completed
system.switch_cpus.numWorkItemsStarted              0                       # number of work items this cpu started
system.switch_cpus.rename.BlockCycles         8892835                       # Number of cycles rename is blocking
system.switch_cpus.rename.CommittedMaps      20372182                       # Number of HB maps that are committed
system.switch_cpus.rename.IQFullEvents         140696                       # Number of times rename has blocked due to IQ full
system.switch_cpus.rename.IdleCycles          4024466                       # Number of cycles rename is idle
system.switch_cpus.rename.LQFullEvents         472858                       # Number of times rename has blocked due to LQ full
system.switch_cpus.rename.ROBFullEvents          3154                       # Number of times rename has blocked due to ROB full
system.switch_cpus.rename.RenameLookups     155525473                       # Number of register rename lookups that rename has made
system.switch_cpus.rename.RenamedInsts       62310764                       # Number of instructions processed by rename
system.switch_cpus.rename.RenamedOperands     56532701                       # Number of destination operands rename has renamed
system.switch_cpus.rename.RunCycles           8764569                       # Number of cycles rename is running
system.switch_cpus.rename.SQFullEvents       20991129                       # Number of times rename has blocked due to SQ full
system.switch_cpus.rename.SquashCycles         389333                       # Number of cycles rename is squashing
system.switch_cpus.rename.UnblockCycles      21504869                       # Number of cycles rename is unblocking
system.switch_cpus.rename.UndoneMaps         36160421                       # Number of HB maps that are undone due to squashing
system.switch_cpus.rename.fp_rename_lookups     18820713                       # Number of floating rename lookups
system.switch_cpus.rename.int_rename_lookups     86157538                       # Number of integer rename lookups
system.switch_cpus.rename.serializeStallCycles            0                       # count of cycles rename stalled for serializing inst
system.switch_cpus.rename.serializingInsts            0                       # count of serializing insts renamed
system.switch_cpus.rename.skidInsts           5626340                       # count of insts added to the skid buffer
system.switch_cpus.rename.tempSerializingInsts            0                       # count of temporary serializing insts renamed
system.switch_cpus.rob.rob_reads             84783777                       # The number of ROB reads
system.switch_cpus.rob.rob_writes           108348656                       # The number of ROB writes
system.switch_cpus.timesIdled                     418                       # Number of times that the entire CPU went into an idle state and unscheduled itself
system.tol2bus.snoop_filter.hit_multi_requests            1                       # Number of requests hitting in the snoop filter with multiple (>1) holders of the requested data.
system.tol2bus.snoop_filter.hit_multi_snoops            0                       # Number of snoops hitting in the snoop filter with multiple (>1) holders of the requested data.
system.tol2bus.snoop_filter.hit_single_requests       252383                       # Number of requests hitting in the snoop filter with a single holder of the requested data.
system.tol2bus.snoop_filter.hit_single_snoops       185541                       # Number of snoops hitting in the snoop filter with a single holder of the requested data.
system.tol2bus.snoop_filter.tot_requests       506149                       # Total number of requests made to the snoop filter.
system.tol2bus.snoop_filter.tot_snoops         185541                       # Total number of snoops made to the snoop filter.
system.membus.pwrStateResidencyTicks::UNDEFINED 1774424789000                       # Cumulative time (in ticks) in various power states
system.membus.trans_dist::ReadResp             127029                       # Transaction distribution
system.membus.trans_dist::WritebackDirty       124034                       # Transaction distribution
system.membus.trans_dist::CleanEvict           126105                       # Transaction distribution
system.membus.trans_dist::ReadExReq            125938                       # Transaction distribution
system.membus.trans_dist::ReadExResp           125938                       # Transaction distribution
system.membus.trans_dist::ReadSharedReq        127030                       # Transaction distribution
system.membus.pkt_count_system.l2.mem_side::system.mem_ctrls.port       756074                       # Packet count per connected master and slave (bytes)
system.membus.pkt_count_system.l2.mem_side::total       756074                       # Packet count per connected master and slave (bytes)
system.membus.pkt_count::total                 756074                       # Packet count per connected master and slave (bytes)
system.membus.pkt_size_system.l2.mem_side::system.mem_ctrls.port     24128064                       # Cumulative packet size per connected master and slave (bytes)
system.membus.pkt_size_system.l2.mem_side::total     24128064                       # Cumulative packet size per connected master and slave (bytes)
system.membus.pkt_size::total                24128064                       # Cumulative packet size per connected master and slave (bytes)
system.membus.snoops                                0                       # Total snoops (count)
system.membus.snoopTraffic                          0                       # Total snoop traffic (bytes)
system.membus.snoop_fanout::samples            252968                       # Request fanout histogram
system.membus.snoop_fanout::mean                    0                       # Request fanout histogram
system.membus.snoop_fanout::stdev                   0                       # Request fanout histogram
system.membus.snoop_fanout::underflows              0      0.00%      0.00% # Request fanout histogram
system.membus.snoop_fanout::0                  252968    100.00%    100.00% # Request fanout histogram
system.membus.snoop_fanout::1                       0      0.00%    100.00% # Request fanout histogram
system.membus.snoop_fanout::overflows               0      0.00%    100.00% # Request fanout histogram
system.membus.snoop_fanout::min_value               0                       # Request fanout histogram
system.membus.snoop_fanout::max_value               0                       # Request fanout histogram
system.membus.snoop_fanout::total              252968                       # Request fanout histogram
system.membus.reqLayer2.occupancy          1026081500                       # Layer occupancy (ticks)
system.membus.reqLayer2.utilization               4.7                       # Layer utilization (%)
system.membus.respLayer1.occupancy         1318164000                       # Layer occupancy (ticks)
system.membus.respLayer1.utilization              6.0                       # Layer utilization (%)
system.switch_cpus.pwrStateResidencyTicks::OFF  21801930250                       # Cumulative time (in ticks) in various power states
system.switch_cpus.dtb.walker.pwrStateResidencyTicks::UNDEFINED 1774424789000                       # Cumulative time (in ticks) in various power states
system.switch_cpus.itb.walker.pwrStateResidencyTicks::UNDEFINED 1774424789000                       # Cumulative time (in ticks) in various power states
system.tol2bus.pwrStateResidencyTicks::UNDEFINED 1774424789000                       # Cumulative time (in ticks) in various power states
system.tol2bus.trans_dist::ReadResp            127824                       # Transaction distribution
system.tol2bus.trans_dist::WritebackDirty       249578                       # Transaction distribution
system.tol2bus.trans_dist::WritebackClean          612                       # Transaction distribution
system.tol2bus.trans_dist::CleanEvict          319932                       # Transaction distribution
system.tol2bus.trans_dist::ReadExReq           125941                       # Transaction distribution
system.tol2bus.trans_dist::ReadExResp          125941                       # Transaction distribution
system.tol2bus.trans_dist::ReadCleanReq           970                       # Transaction distribution
system.tol2bus.trans_dist::ReadSharedReq       126855                       # Transaction distribution
system.tol2bus.pkt_count_system.cpu.icache.mem_side::system.l2.cpu_side         2552                       # Packet count per connected master and slave (bytes)
system.tol2bus.pkt_count_system.cpu.dcache.mem_side::system.l2.cpu_side       757362                       # Packet count per connected master and slave (bytes)
system.tol2bus.pkt_count::total                759914                       # Packet count per connected master and slave (bytes)
system.tol2bus.pkt_size_system.cpu.icache.mem_side::system.l2.cpu_side       101248                       # Cumulative packet size per connected master and slave (bytes)
system.tol2bus.pkt_size_system.cpu.dcache.mem_side::system.l2.cpu_side     24213696                       # Cumulative packet size per connected master and slave (bytes)
system.tol2bus.pkt_size::total               24314944                       # Cumulative packet size per connected master and slave (bytes)
system.tol2bus.snoops                          317739                       # Total snoops (count)
system.tol2bus.snoopTraffic                   7938176                       # Total snoop traffic (bytes)
system.tol2bus.snoop_fanout::samples           571505                       # Request fanout histogram
system.tol2bus.snoop_fanout::mean            0.324655                       # Request fanout histogram
system.tol2bus.snoop_fanout::stdev           0.468246                       # Request fanout histogram
system.tol2bus.snoop_fanout::underflows             0      0.00%      0.00% # Request fanout histogram
system.tol2bus.snoop_fanout::0                 385963     67.53%     67.53% # Request fanout histogram
system.tol2bus.snoop_fanout::1                 185542     32.47%    100.00% # Request fanout histogram
system.tol2bus.snoop_fanout::2                      0      0.00%    100.00% # Request fanout histogram
system.tol2bus.snoop_fanout::3                      0      0.00%    100.00% # Request fanout histogram
system.tol2bus.snoop_fanout::4                      0      0.00%    100.00% # Request fanout histogram
system.tol2bus.snoop_fanout::overflows              0      0.00%    100.00% # Request fanout histogram
system.tol2bus.snoop_fanout::min_value              0                       # Request fanout histogram
system.tol2bus.snoop_fanout::max_value              1                       # Request fanout histogram
system.tol2bus.snoop_fanout::total             571505                       # Request fanout histogram
system.tol2bus.reqLayer0.occupancy          379228500                       # Layer occupancy (ticks)
system.tol2bus.reqLayer0.utilization              1.7                       # Layer utilization (%)
system.tol2bus.respLayer1.occupancy         379189500                       # Layer occupancy (ticks)
system.tol2bus.respLayer1.utilization             1.7                       # Layer utilization (%)
system.tol2bus.respLayer0.occupancy           1452000                       # Layer occupancy (ticks)
system.tol2bus.respLayer0.utilization             0.0                       # Layer utilization (%)
system.voltage_domain.voltage                       1                       # Voltage in Volts
system.clk_domain.clock                          1000                       # Clock period in ticks
system.l2.pwrStateResidencyTicks::UNDEFINED 1774424789000                       # Cumulative time (in ticks) in various power states
system.l2.demand_hits::.switch_cpus.inst          571                       # number of demand (read+write) hits
system.l2.demand_hits::.switch_cpus.data          227                       # number of demand (read+write) hits
system.l2.demand_hits::total                      798                       # number of demand (read+write) hits
system.l2.overall_hits::.switch_cpus.inst          571                       # number of overall hits
system.l2.overall_hits::.switch_cpus.data          227                       # number of overall hits
system.l2.overall_hits::total                     798                       # number of overall hits
system.l2.demand_misses::.cpu.inst                  2                       # number of demand (read+write) misses
system.l2.demand_misses::.cpu.data                  2                       # number of demand (read+write) misses
system.l2.demand_misses::.switch_cpus.inst          397                       # number of demand (read+write) misses
system.l2.demand_misses::.switch_cpus.data       252567                       # number of demand (read+write) misses
system.l2.demand_misses::total                 252968                       # number of demand (read+write) misses
system.l2.overall_misses::.cpu.inst                 2                       # number of overall misses
system.l2.overall_misses::.cpu.data                 2                       # number of overall misses
system.l2.overall_misses::.switch_cpus.inst          397                       # number of overall misses
system.l2.overall_misses::.switch_cpus.data       252567                       # number of overall misses
system.l2.overall_misses::total                252968                       # number of overall misses
system.l2.demand_miss_latency::.switch_cpus.inst     33852500                       # number of demand (read+write) miss cycles
system.l2.demand_miss_latency::.switch_cpus.data  20488078000                       # number of demand (read+write) miss cycles
system.l2.demand_miss_latency::total      20521930500                       # number of demand (read+write) miss cycles
system.l2.overall_miss_latency::.switch_cpus.inst     33852500                       # number of overall miss cycles
system.l2.overall_miss_latency::.switch_cpus.data  20488078000                       # number of overall miss cycles
system.l2.overall_miss_latency::total     20521930500                       # number of overall miss cycles
system.l2.demand_accesses::.cpu.inst                2                       # number of demand (read+write) accesses
system.l2.demand_accesses::.cpu.data                2                       # number of demand (read+write) accesses
system.l2.demand_accesses::.switch_cpus.inst          968                       # number of demand (read+write) accesses
system.l2.demand_accesses::.switch_cpus.data       252794                       # number of demand (read+write) accesses
system.l2.demand_accesses::total               253766                       # number of demand (read+write) accesses
system.l2.overall_accesses::.cpu.inst               2                       # number of overall (read+write) accesses
system.l2.overall_accesses::.cpu.data               2                       # number of overall (read+write) accesses
system.l2.overall_accesses::.switch_cpus.inst          968                       # number of overall (read+write) accesses
system.l2.overall_accesses::.switch_cpus.data       252794                       # number of overall (read+write) accesses
system.l2.overall_accesses::total              253766                       # number of overall (read+write) accesses
system.l2.demand_miss_rate::.cpu.inst               1                       # miss rate for demand accesses
system.l2.demand_miss_rate::.cpu.data               1                       # miss rate for demand accesses
system.l2.demand_miss_rate::.switch_cpus.inst     0.410124                       # miss rate for demand accesses
system.l2.demand_miss_rate::.switch_cpus.data     0.999102                       # miss rate for demand accesses
system.l2.demand_miss_rate::total            0.996855                       # miss rate for demand accesses
system.l2.overall_miss_rate::.cpu.inst              1                       # miss rate for overall accesses
system.l2.overall_miss_rate::.cpu.data              1                       # miss rate for overall accesses
system.l2.overall_miss_rate::.switch_cpus.inst     0.410124                       # miss rate for overall accesses
system.l2.overall_miss_rate::.switch_cpus.data     0.999102                       # miss rate for overall accesses
system.l2.overall_miss_rate::total           0.996855                       # miss rate for overall accesses
system.l2.demand_avg_miss_latency::.switch_cpus.inst 85270.780856                       # average overall miss latency
system.l2.demand_avg_miss_latency::.switch_cpus.data 81119.378224                       # average overall miss latency
system.l2.demand_avg_miss_latency::total 81124.610623                       # average overall miss latency
system.l2.overall_avg_miss_latency::.switch_cpus.inst 85270.780856                       # average overall miss latency
system.l2.overall_avg_miss_latency::.switch_cpus.data 81119.378224                       # average overall miss latency
system.l2.overall_avg_miss_latency::total 81124.610623                       # average overall miss latency
system.l2.blocked_cycles::no_mshrs                  0                       # number of cycles access was blocked
system.l2.blocked_cycles::no_targets                0                       # number of cycles access was blocked
system.l2.blocked::no_mshrs                         0                       # number of cycles access was blocked
system.l2.blocked::no_targets                       0                       # number of cycles access was blocked
system.l2.avg_blocked_cycles::no_mshrs            nan                       # average number of cycles each access was blocked
system.l2.avg_blocked_cycles::no_targets          nan                       # average number of cycles each access was blocked
system.l2.writebacks::.writebacks              124034                       # number of writebacks
system.l2.writebacks::total                    124034                       # number of writebacks
system.l2.demand_mshr_misses::.switch_cpus.inst          397                       # number of demand (read+write) MSHR misses
system.l2.demand_mshr_misses::.switch_cpus.data       252567                       # number of demand (read+write) MSHR misses
system.l2.demand_mshr_misses::total            252964                       # number of demand (read+write) MSHR misses
system.l2.overall_mshr_misses::.switch_cpus.inst          397                       # number of overall MSHR misses
system.l2.overall_mshr_misses::.switch_cpus.data       252567                       # number of overall MSHR misses
system.l2.overall_mshr_misses::total           252964                       # number of overall MSHR misses
system.l2.demand_mshr_miss_latency::.switch_cpus.inst     29882500                       # number of demand (read+write) MSHR miss cycles
system.l2.demand_mshr_miss_latency::.switch_cpus.data  17962418000                       # number of demand (read+write) MSHR miss cycles
system.l2.demand_mshr_miss_latency::total  17992300500                       # number of demand (read+write) MSHR miss cycles
system.l2.overall_mshr_miss_latency::.switch_cpus.inst     29882500                       # number of overall MSHR miss cycles
system.l2.overall_mshr_miss_latency::.switch_cpus.data  17962418000                       # number of overall MSHR miss cycles
system.l2.overall_mshr_miss_latency::total  17992300500                       # number of overall MSHR miss cycles
system.l2.demand_mshr_miss_rate::.switch_cpus.inst     0.410124                       # mshr miss rate for demand accesses
system.l2.demand_mshr_miss_rate::.switch_cpus.data     0.999102                       # mshr miss rate for demand accesses
system.l2.demand_mshr_miss_rate::total       0.996840                       # mshr miss rate for demand accesses
system.l2.overall_mshr_miss_rate::.switch_cpus.inst     0.410124                       # mshr miss rate for overall accesses
system.l2.overall_mshr_miss_rate::.switch_cpus.data     0.999102                       # mshr miss rate for overall accesses
system.l2.overall_mshr_miss_rate::total      0.996840                       # mshr miss rate for overall accesses
system.l2.demand_avg_mshr_miss_latency::.switch_cpus.inst 75270.780856                       # average overall mshr miss latency
system.l2.demand_avg_mshr_miss_latency::.switch_cpus.data 71119.417818                       # average overall mshr miss latency
system.l2.demand_avg_mshr_miss_latency::total 71125.932939                       # average overall mshr miss latency
system.l2.overall_avg_mshr_miss_latency::.switch_cpus.inst 75270.780856                       # average overall mshr miss latency
system.l2.overall_avg_mshr_miss_latency::.switch_cpus.data 71119.417818                       # average overall mshr miss latency
system.l2.overall_avg_mshr_miss_latency::total 71125.932939                       # average overall mshr miss latency
system.l2.replacements                         317739                       # number of replacements
system.l2.WritebackDirty_hits::.writebacks       125544                       # number of WritebackDirty hits
system.l2.WritebackDirty_hits::total           125544                       # number of WritebackDirty hits
system.l2.WritebackDirty_accesses::.writebacks       125544                       # number of WritebackDirty accesses(hits+misses)
system.l2.WritebackDirty_accesses::total       125544                       # number of WritebackDirty accesses(hits+misses)
system.l2.WritebackClean_hits::.writebacks          612                       # number of WritebackClean hits
system.l2.WritebackClean_hits::total              612                       # number of WritebackClean hits
system.l2.WritebackClean_accesses::.writebacks          612                       # number of WritebackClean accesses(hits+misses)
system.l2.WritebackClean_accesses::total          612                       # number of WritebackClean accesses(hits+misses)
system.l2.CleanEvict_mshr_misses::.writebacks       117941                       # number of CleanEvict MSHR misses
system.l2.CleanEvict_mshr_misses::total        117941                       # number of CleanEvict MSHR misses
system.l2.CleanEvict_mshr_miss_rate::.writebacks          inf                       # mshr miss rate for CleanEvict accesses
system.l2.CleanEvict_mshr_miss_rate::total          inf                       # mshr miss rate for CleanEvict accesses
system.l2.ReadExReq_hits::.switch_cpus.data            3                       # number of ReadExReq hits
system.l2.ReadExReq_hits::total                     3                       # number of ReadExReq hits
system.l2.ReadExReq_misses::.switch_cpus.data       125938                       # number of ReadExReq misses
system.l2.ReadExReq_misses::total              125938                       # number of ReadExReq misses
system.l2.ReadExReq_miss_latency::.switch_cpus.data   9871873000                       # number of ReadExReq miss cycles
system.l2.ReadExReq_miss_latency::total    9871873000                       # number of ReadExReq miss cycles
system.l2.ReadExReq_accesses::.switch_cpus.data       125941                       # number of ReadExReq accesses(hits+misses)
system.l2.ReadExReq_accesses::total            125941                       # number of ReadExReq accesses(hits+misses)
system.l2.ReadExReq_miss_rate::.switch_cpus.data     0.999976                       # miss rate for ReadExReq accesses
system.l2.ReadExReq_miss_rate::total         0.999976                       # miss rate for ReadExReq accesses
system.l2.ReadExReq_avg_miss_latency::.switch_cpus.data 78386.769680                       # average ReadExReq miss latency
system.l2.ReadExReq_avg_miss_latency::total 78386.769680                       # average ReadExReq miss latency
system.l2.ReadExReq_mshr_misses::.switch_cpus.data       125938                       # number of ReadExReq MSHR misses
system.l2.ReadExReq_mshr_misses::total         125938                       # number of ReadExReq MSHR misses
system.l2.ReadExReq_mshr_miss_latency::.switch_cpus.data   8612493000                       # number of ReadExReq MSHR miss cycles
system.l2.ReadExReq_mshr_miss_latency::total   8612493000                       # number of ReadExReq MSHR miss cycles
system.l2.ReadExReq_mshr_miss_rate::.switch_cpus.data     0.999976                       # mshr miss rate for ReadExReq accesses
system.l2.ReadExReq_mshr_miss_rate::total     0.999976                       # mshr miss rate for ReadExReq accesses
system.l2.ReadExReq_avg_mshr_miss_latency::.switch_cpus.data 68386.769680                       # average ReadExReq mshr miss latency
system.l2.ReadExReq_avg_mshr_miss_latency::total 68386.769680                       # average ReadExReq mshr miss latency
system.l2.ReadCleanReq_hits::.switch_cpus.inst          571                       # number of ReadCleanReq hits
system.l2.ReadCleanReq_hits::total                571                       # number of ReadCleanReq hits
system.l2.ReadCleanReq_misses::.cpu.inst            2                       # number of ReadCleanReq misses
system.l2.ReadCleanReq_misses::.switch_cpus.inst          397                       # number of ReadCleanReq misses
system.l2.ReadCleanReq_misses::total              399                       # number of ReadCleanReq misses
system.l2.ReadCleanReq_miss_latency::.switch_cpus.inst     33852500                       # number of ReadCleanReq miss cycles
system.l2.ReadCleanReq_miss_latency::total     33852500                       # number of ReadCleanReq miss cycles
system.l2.ReadCleanReq_accesses::.cpu.inst            2                       # number of ReadCleanReq accesses(hits+misses)
system.l2.ReadCleanReq_accesses::.switch_cpus.inst          968                       # number of ReadCleanReq accesses(hits+misses)
system.l2.ReadCleanReq_accesses::total            970                       # number of ReadCleanReq accesses(hits+misses)
system.l2.ReadCleanReq_miss_rate::.cpu.inst            1                       # miss rate for ReadCleanReq accesses
system.l2.ReadCleanReq_miss_rate::.switch_cpus.inst     0.410124                       # miss rate for ReadCleanReq accesses
system.l2.ReadCleanReq_miss_rate::total      0.411340                       # miss rate for ReadCleanReq accesses
system.l2.ReadCleanReq_avg_miss_latency::.switch_cpus.inst 85270.780856                       # average ReadCleanReq miss latency
system.l2.ReadCleanReq_avg_miss_latency::total 84843.358396                       # average ReadCleanReq miss latency
[...]
system.cpu.itb_walker_cache.tags.tag_accesses            0                       # Number of tag accesses
system.cpu.itb_walker_cache.tags.data_accesses            0                       # Number of data accesses
system.cpu.itb.walker.pwrStateResidencyTicks::UNDEFINED 1806811853500                       # Cumulative time (in ticks) in various power states
system.cpu.dtb_walker_cache.pwrStateResidencyTicks::UNDEFINED 1806811853500                       # Cumulative time (in ticks) in various power states
system.cpu.dtb_walker_cache.blocked_cycles::no_mshrs            0                       # number of cycles access was blocked
system.cpu.dtb_walker_cache.blocked_cycles::no_targets            0                       # number of cycles access was blocked
system.cpu.dtb_walker_cache.blocked::no_mshrs            0                       # number of cycles access was blocked
system.cpu.dtb_walker_cache.blocked::no_targets            0                       # number of cycles access was blocked
system.cpu.dtb_walker_cache.avg_blocked_cycles::no_mshrs          nan                       # average number of cycles each access was blocked
system.cpu.dtb_walker_cache.avg_blocked_cycles::no_targets          nan                       # average number of cycles each access was blocked
system.cpu.dtb_walker_cache.replacements            0                       # number of replacements
system.cpu.dtb_walker_cache.tags.pwrStateResidencyTicks::UNDEFINED 1806811853500                       # Cumulative time (in ticks) in various power states
system.cpu.dtb_walker_cache.tags.tagsinuse            0                       # Cycle average of tags in use
system.cpu.dtb_walker_cache.tags.total_refs            0                       # Total number of references to valid blocks.
system.cpu.dtb_walker_cache.tags.sampled_refs            0                       # Sample count of references to valid blocks.
system.cpu.dtb_walker_cache.tags.avg_refs          nan                       # Average number of references to valid blocks.
system.cpu.dtb_walker_cache.tags.warmup_cycle            0                       # Cycle when the warmup percentage was hit.
system.cpu.dtb_walker_cache.tags.tag_accesses            0                       # Number of tag accesses
system.cpu.dtb_walker_cache.tags.data_accesses            0                       # Number of data accesses
system.cpu.dcache.pwrStateResidencyTicks::UNDEFINED 1806811853500                       # Cumulative time (in ticks) in various power states
system.cpu.dcache.demand_hits::.cpu.data            1                       # number of demand (read+write) hits
system.cpu.dcache.demand_hits::.switch_cpus.data     39431275                       # number of demand (read+write) hits
system.cpu.dcache.demand_hits::total         39431276                       # number of demand (read+write) hits
system.cpu.dcache.overall_hits::.cpu.data            1                       # number of overall hits
system.cpu.dcache.overall_hits::.switch_cpus.data     41250971                       # number of overall hits
system.cpu.dcache.overall_hits::total        41250972                       # number of overall hits
system.cpu.dcache.demand_misses::.cpu.data            2                       # number of demand (read+write) misses
system.cpu.dcache.demand_misses::.switch_cpus.data      1409750                       # number of demand (read+write) misses
system.cpu.dcache.demand_misses::total        1409752                       # number of demand (read+write) misses
system.cpu.dcache.overall_misses::.cpu.data            2                       # number of overall misses
system.cpu.dcache.overall_misses::.switch_cpus.data      1532198                       # number of overall misses
system.cpu.dcache.overall_misses::total       1532200                       # number of overall misses
system.cpu.dcache.demand_miss_latency::.switch_cpus.data 111638986607                       # number of demand (read+write) miss cycles
system.cpu.dcache.demand_miss_latency::total 111638986607                       # number of demand (read+write) miss cycles
system.cpu.dcache.overall_miss_latency::.switch_cpus.data 111638986607                       # number of overall miss cycles
system.cpu.dcache.overall_miss_latency::total 111638986607                       # number of overall miss cycles
system.cpu.dcache.demand_accesses::.cpu.data            3                       # number of demand (read+write) accesses
system.cpu.dcache.demand_accesses::.switch_cpus.data     40841025                       # number of demand (read+write) accesses
system.cpu.dcache.demand_accesses::total     40841028                       # number of demand (read+write) accesses
system.cpu.dcache.overall_accesses::.cpu.data            3                       # number of overall (read+write) accesses
system.cpu.dcache.overall_accesses::.switch_cpus.data     42783169                       # number of overall (read+write) accesses
system.cpu.dcache.overall_accesses::total     42783172                       # number of overall (read+write) accesses
system.cpu.dcache.demand_miss_rate::.cpu.data     0.666667                       # miss rate for demand accesses
system.cpu.dcache.demand_miss_rate::.switch_cpus.data     0.034518                       # miss rate for demand accesses
system.cpu.dcache.demand_miss_rate::total     0.034518                       # miss rate for demand accesses
system.cpu.dcache.overall_miss_rate::.cpu.data     0.666667                       # miss rate for overall accesses
system.cpu.dcache.overall_miss_rate::.switch_cpus.data     0.035813                       # miss rate for overall accesses
system.cpu.dcache.overall_miss_rate::total     0.035813                       # miss rate for overall accesses
system.cpu.dcache.demand_avg_miss_latency::.switch_cpus.data 79190.627137                       # average overall miss latency
system.cpu.dcache.demand_avg_miss_latency::total 79190.514791                       # average overall miss latency
system.cpu.dcache.overall_avg_miss_latency::.switch_cpus.data 72861.984291                       # average overall miss latency
system.cpu.dcache.overall_avg_miss_latency::total 72861.889184                       # average overall miss latency
system.cpu.dcache.blocked_cycles::no_mshrs      9745581                       # number of cycles access was blocked
system.cpu.dcache.blocked_cycles::no_targets        22065                       # number of cycles access was blocked
system.cpu.dcache.blocked::no_mshrs            105948                       # number of cycles access was blocked
system.cpu.dcache.blocked::no_targets             302                       # number of cycles access was blocked
system.cpu.dcache.avg_blocked_cycles::no_mshrs    91.984568                       # average number of cycles each access was blocked
system.cpu.dcache.avg_blocked_cycles::no_targets    73.062914                       # average number of cycles each access was blocked
system.cpu.dcache.writebacks::.writebacks       301196                       # number of writebacks
system.cpu.dcache.writebacks::total            301196                       # number of writebacks
system.cpu.dcache.demand_mshr_hits::.switch_cpus.data       778454                       # number of demand (read+write) MSHR hits
system.cpu.dcache.demand_mshr_hits::total       778454                       # number of demand (read+write) MSHR hits
system.cpu.dcache.overall_mshr_hits::.switch_cpus.data       778454                       # number of overall MSHR hits
system.cpu.dcache.overall_mshr_hits::total       778454                       # number of overall MSHR hits
system.cpu.dcache.demand_mshr_misses::.switch_cpus.data       631296                       # number of demand (read+write) MSHR misses
system.cpu.dcache.demand_mshr_misses::total       631296                       # number of demand (read+write) MSHR misses
system.cpu.dcache.overall_mshr_misses::.switch_cpus.data       692812                       # number of overall MSHR misses
system.cpu.dcache.overall_mshr_misses::total       692812                       # number of overall MSHR misses
system.cpu.dcache.demand_mshr_miss_latency::.switch_cpus.data  55080753608                       # number of demand (read+write) MSHR miss cycles
system.cpu.dcache.demand_mshr_miss_latency::total  55080753608                       # number of demand (read+write) MSHR miss cycles
system.cpu.dcache.overall_mshr_miss_latency::.switch_cpus.data  60768196108                       # number of overall MSHR miss cycles
system.cpu.dcache.overall_mshr_miss_latency::total  60768196108                       # number of overall MSHR miss cycles
system.cpu.dcache.demand_mshr_miss_rate::.switch_cpus.data     0.015457                       # mshr miss rate for demand accesses
system.cpu.dcache.demand_mshr_miss_rate::total     0.015457                       # mshr miss rate for demand accesses
system.cpu.dcache.overall_mshr_miss_rate::.switch_cpus.data     0.016194                       # mshr miss rate for overall accesses
system.cpu.dcache.overall_mshr_miss_rate::total     0.016194                       # mshr miss rate for overall accesses
system.cpu.dcache.demand_avg_mshr_miss_latency::.switch_cpus.data 87250.281339                       # average overall mshr miss latency
system.cpu.dcache.demand_avg_mshr_miss_latency::total 87250.281339                       # average overall mshr miss latency
system.cpu.dcache.overall_avg_mshr_miss_latency::.switch_cpus.data 87712.389664                       # average overall mshr miss latency
system.cpu.dcache.overall_avg_mshr_miss_latency::total 87712.389664                       # average overall mshr miss latency
system.cpu.dcache.replacements                 691786                       # number of replacements
system.cpu.dcache.ReadReq_hits::.cpu.data            1                       # number of ReadReq hits
system.cpu.dcache.ReadReq_hits::.switch_cpus.data     30925375                       # number of ReadReq hits
system.cpu.dcache.ReadReq_hits::total        30925376                       # number of ReadReq hits
system.cpu.dcache.ReadReq_misses::.cpu.data            2                       # number of ReadReq misses
system.cpu.dcache.ReadReq_misses::.switch_cpus.data      1120855                       # number of ReadReq misses
system.cpu.dcache.ReadReq_misses::total       1120857                       # number of ReadReq misses
system.cpu.dcache.ReadReq_miss_latency::.switch_cpus.data  86989874000                       # number of ReadReq miss cycles
system.cpu.dcache.ReadReq_miss_latency::total  86989874000                       # number of ReadReq miss cycles
system.cpu.dcache.ReadReq_accesses::.cpu.data            3                       # number of ReadReq accesses(hits+misses)
system.cpu.dcache.ReadReq_accesses::.switch_cpus.data     32046230                       # number of ReadReq accesses(hits+misses)
system.cpu.dcache.ReadReq_accesses::total     32046233                       # number of ReadReq accesses(hits+misses)
system.cpu.dcache.ReadReq_miss_rate::.cpu.data     0.666667                       # miss rate for ReadReq accesses
system.cpu.dcache.ReadReq_miss_rate::.switch_cpus.data     0.034976                       # miss rate for ReadReq accesses
system.cpu.dcache.ReadReq_miss_rate::total     0.034976                       # miss rate for ReadReq accesses
system.cpu.dcache.ReadReq_avg_miss_latency::.switch_cpus.data 77610.283221                       # average ReadReq miss latency
system.cpu.dcache.ReadReq_avg_miss_latency::total 77610.144737                       # average ReadReq miss latency
system.cpu.dcache.ReadReq_mshr_hits::.switch_cpus.data       778369                       # number of ReadReq MSHR hits
system.cpu.dcache.ReadReq_mshr_hits::total       778369                       # number of ReadReq MSHR hits
system.cpu.dcache.ReadReq_mshr_misses::.switch_cpus.data       342486                       # number of ReadReq MSHR misses
system.cpu.dcache.ReadReq_mshr_misses::total       342486                       # number of ReadReq MSHR misses
system.cpu.dcache.ReadReq_mshr_miss_latency::.switch_cpus.data  30722347000                       # number of ReadReq MSHR miss cycles
system.cpu.dcache.ReadReq_mshr_miss_latency::total  30722347000                       # number of ReadReq MSHR miss cycles
system.cpu.dcache.ReadReq_mshr_miss_rate::.switch_cpus.data     0.010687                       # mshr miss rate for ReadReq accesses
system.cpu.dcache.ReadReq_mshr_miss_rate::total     0.010687                       # mshr miss rate for ReadReq accesses
system.cpu.dcache.ReadReq_avg_mshr_miss_latency::.switch_cpus.data 89703.949942                       # average ReadReq mshr miss latency
system.cpu.dcache.ReadReq_avg_mshr_miss_latency::total 89703.949942                       # average ReadReq mshr miss latency
system.cpu.dcache.WriteReq_hits::.switch_cpus.data      8505900                       # number of WriteReq hits
system.cpu.dcache.WriteReq_hits::total        8505900                       # number of WriteReq hits
system.cpu.dcache.WriteReq_misses::.switch_cpus.data       288895                       # number of WriteReq misses
system.cpu.dcache.WriteReq_misses::total       288895                       # number of WriteReq misses
system.cpu.dcache.WriteReq_miss_latency::.switch_cpus.data  24649112607                       # number of WriteReq miss cycles
system.cpu.dcache.WriteReq_miss_latency::total  24649112607                       # number of WriteReq miss cycles
system.cpu.dcache.WriteReq_accesses::.switch_cpus.data      8794795                       # number of WriteReq accesses(hits+misses)
system.cpu.dcache.WriteReq_accesses::total      8794795                       # number of WriteReq accesses(hits+misses)
system.cpu.dcache.WriteReq_miss_rate::.switch_cpus.data     0.032848                       # miss rate for WriteReq accesses
system.cpu.dcache.WriteReq_miss_rate::total     0.032848                       # miss rate for WriteReq accesses
system.cpu.dcache.WriteReq_avg_miss_latency::.switch_cpus.data 85322.046442                       # average WriteReq miss latency
system.cpu.dcache.WriteReq_avg_miss_latency::total 85322.046442                       # average WriteReq miss latency
system.cpu.dcache.WriteReq_mshr_hits::.switch_cpus.data           85                       # number of WriteReq MSHR hits
system.cpu.dcache.WriteReq_mshr_hits::total           85                       # number of WriteReq MSHR hits
system.cpu.dcache.WriteReq_mshr_misses::.switch_cpus.data       288810                       # number of WriteReq MSHR misses
system.cpu.dcache.WriteReq_mshr_misses::total       288810                       # number of WriteReq MSHR misses
system.cpu.dcache.WriteReq_mshr_miss_latency::.switch_cpus.data  24358406608                       # number of WriteReq MSHR miss cycles
system.cpu.dcache.WriteReq_mshr_miss_latency::total  24358406608                       # number of WriteReq MSHR miss cycles
system.cpu.dcache.WriteReq_mshr_miss_rate::.switch_cpus.data     0.032839                       # mshr miss rate for WriteReq accesses
system.cpu.dcache.WriteReq_mshr_miss_rate::total     0.032839                       # mshr miss rate for WriteReq accesses
system.cpu.dcache.WriteReq_avg_mshr_miss_latency::.switch_cpus.data 84340.592805                       # average WriteReq mshr miss latency
system.cpu.dcache.WriteReq_avg_mshr_miss_latency::total 84340.592805                       # average WriteReq mshr miss latency
system.cpu.dcache.SoftPFReq_hits::.switch_cpus.data      1819696                       # number of SoftPFReq hits
system.cpu.dcache.SoftPFReq_hits::total       1819696                       # number of SoftPFReq hits
system.cpu.dcache.SoftPFReq_misses::.switch_cpus.data       122448                       # number of SoftPFReq misses
system.cpu.dcache.SoftPFReq_misses::total       122448                       # number of SoftPFReq misses
system.cpu.dcache.SoftPFReq_accesses::.switch_cpus.data      1942144                       # number of SoftPFReq accesses(hits+misses)
system.cpu.dcache.SoftPFReq_accesses::total      1942144                       # number of SoftPFReq accesses(hits+misses)
system.cpu.dcache.SoftPFReq_miss_rate::.switch_cpus.data     0.063048                       # miss rate for SoftPFReq accesses
system.cpu.dcache.SoftPFReq_miss_rate::total     0.063048                       # miss rate for SoftPFReq accesses
system.cpu.dcache.SoftPFReq_mshr_misses::.switch_cpus.data        61516                       # number of SoftPFReq MSHR misses
system.cpu.dcache.SoftPFReq_mshr_misses::total        61516                       # number of SoftPFReq MSHR misses
system.cpu.dcache.SoftPFReq_mshr_miss_latency::.switch_cpus.data   5687442500                       # number of SoftPFReq MSHR miss cycles
system.cpu.dcache.SoftPFReq_mshr_miss_latency::total   5687442500                       # number of SoftPFReq MSHR miss cycles
system.cpu.dcache.SoftPFReq_mshr_miss_rate::.switch_cpus.data     0.031674                       # mshr miss rate for SoftPFReq accesses
system.cpu.dcache.SoftPFReq_mshr_miss_rate::total     0.031674                       # mshr miss rate for SoftPFReq accesses
system.cpu.dcache.SoftPFReq_avg_mshr_miss_latency::.switch_cpus.data 92454.686586                       # average SoftPFReq mshr miss latency
system.cpu.dcache.SoftPFReq_avg_mshr_miss_latency::total 92454.686586                       # average SoftPFReq mshr miss latency
system.cpu.dcache.tags.pwrStateResidencyTicks::UNDEFINED 1806811853500                       # Cumulative time (in ticks) in various power states
system.cpu.dcache.tags.tagsinuse            30.676456                       # Cycle average of tags in use
system.cpu.dcache.tags.total_refs            41943786                       # Total number of references to valid blocks.
system.cpu.dcache.tags.sampled_refs            692810                       # Sample count of references to valid blocks.
system.cpu.dcache.tags.avg_refs             60.541542                       # Average number of references to valid blocks.
system.cpu.dcache.tags.warmup_cycle      1752622860500                       # Cycle when the warmup percentage was hit.
system.cpu.dcache.tags.occ_blocks::.cpu.data     0.002243                       # Average occupied blocks per requestor
system.cpu.dcache.tags.occ_blocks::.switch_cpus.data    30.674213                       # Average occupied blocks per requestor
system.cpu.dcache.tags.occ_percent::.cpu.data     0.000002                       # Average percentage of cache occupancy
system.cpu.dcache.tags.occ_percent::.switch_cpus.data     0.029955                       # Average percentage of cache occupancy
system.cpu.dcache.tags.occ_percent::total     0.029957                       # Average percentage of cache occupancy
system.cpu.dcache.tags.occ_task_id_blocks::1024         1024                       # Occupied blocks per task id
system.cpu.dcache.tags.age_task_id_blocks_1024::0          114                       # Occupied blocks per task id
system.cpu.dcache.tags.age_task_id_blocks_1024::1          750                       # Occupied blocks per task id
system.cpu.dcache.tags.age_task_id_blocks_1024::2          146                       # Occupied blocks per task id
system.cpu.dcache.tags.age_task_id_blocks_1024::3           14                       # Occupied blocks per task id
system.cpu.dcache.tags.occ_task_id_percent::1024            1                       # Percentage of cache occupancy per task id
system.cpu.dcache.tags.tag_accesses          86259154                       # Number of tag accesses
system.cpu.dcache.tags.data_accesses         86259154                       # Number of data accesses

---------- End Simulation Statistics   ----------
