
---------- Begin Simulation Statistics ----------
final_tick                               560741437986500                       # Number of ticks from beginning of simulation (restored from checkpoints and never reset)
host_inst_rate                                  49235                       # Simulator instruction rate (inst/s)
host_mem_usage                                 880116                       # Number of bytes of host memory used
host_op_rate                                   110668                       # Simulator op (including micro ops) rate (op/s)
host_seconds                                   203.11                       # Real time elapsed on the host
host_tick_rate                               36485956                       # Simulator tick rate (ticks/s)
sim_freq                                 1000000000000                       # Frequency of simulated ticks
sim_insts                                    10000008                       # Number of instructions simulated
sim_ops                                      22477347                       # Number of ops (including micro ops) simulated
sim_seconds                                  0.007411                       # Number of seconds simulated
sim_ticks                                  7410536500                       # Number of ticks simulated
system.cpu.committedInsts                           8                       # Number of instructions committed
system.cpu.committedOps                            16                       # Number of ops (including micro ops) committed
system.cpu.dtb.rdAccesses                           2                       # TLB accesses on read requests
system.cpu.dtb.rdMisses                             0                       # TLB misses on read requests
system.cpu.dtb.wrAccesses                           4                       # TLB accesses on write requests
system.cpu.dtb.wrMisses                             0                       # TLB misses on write requests
system.cpu.idle_fraction                            0                       # Percentage of idle cycles
system.cpu.itb.rdAccesses                           0                       # TLB accesses on read requests
system.cpu.itb.rdMisses                             0                       # TLB misses on read requests
system.cpu.itb.wrAccesses                          13                       # TLB accesses on write requests
system.cpu.itb.wrMisses                             0                       # TLB misses on write requests
system.cpu.not_idle_fraction                        1                       # Percentage of non-idle cycles
system.cpu.numCycles                               21                       # number of cpu cycles simulated
system.cpu.numWorkItemsCompleted                    0                       # number of work items this cpu completed
system.cpu.numWorkItemsStarted                      0                       # number of work items this cpu started
system.cpu.num_busy_cycles                         21                       # Number of busy cycles
system.cpu.num_conditional_control_insts            0                       # number of instructions that are conditional controls
system.cpu.num_fp_alu_accesses                     16                       # Number of float alu accesses
system.cpu.num_fp_insts                            16                       # number of float instructions
system.cpu.num_fp_register_reads                   32                       # number of times the floating registers were read
system.cpu.num_fp_register_writes                  12                       # number of times the floating registers were written
system.cpu.num_func_calls                           0                       # number of times a function call or return occured
system.cpu.num_idle_cycles                          0                       # Number of idle cycles
system.cpu.num_int_alu_accesses                     6                       # Number of integer alu accesses
system.cpu.num_int_insts                            6                       # number of integer instructions
system.cpu.num_int_register_reads                  18                       # number of times the integer registers were read
system.cpu.num_int_register_writes                  0                       # number of times the integer registers were written
system.cpu.num_load_insts                           2                       # Number of load instructions
system.cpu.num_mem_refs                             6                       # number of memory refs
system.cpu.num_store_insts                          4                       # Number of store instructions
system.cpu.num_vec_alu_accesses                     0                       # Number of vector alu accesses
system.cpu.num_vec_insts                            0                       # number of vector instructions
system.cpu.num_vec_register_reads                   0                       # number of times the vector registers were read
system.cpu.num_vec_register_writes                  0                       # number of times the vector registers were written
system.cpu.op_class::No_OpClass                     0      0.00%      0.00% # Class of executed instruction
system.cpu.op_class::IntAlu                         2     12.50%     12.50% # Class of executed instruction
system.cpu.op_class::IntMult                        0      0.00%     12.50% # Class of executed instruction
system.cpu.op_class::IntDiv                         0      0.00%     12.50% # Class of executed instruction
system.cpu.op_class::FloatAdd                       0      0.00%     12.50% # Class of executed instruction
system.cpu.op_class::FloatCmp                       0      0.00%     12.50% # Class of executed instruction
system.cpu.op_class::FloatCvt                       0      0.00%     12.50% # Class of executed instruction
system.cpu.op_class::FloatMult                      0      0.00%     12.50% # Class of executed instruction
system.cpu.op_class::FloatMultAcc                   0      0.00%     12.50% # Class of executed instruction
system.cpu.op_class::FloatDiv                       0      0.00%     12.50% # Class of executed instruction
system.cpu.op_class::FloatMisc                      0      0.00%     12.50% # Class of executed instruction
system.cpu.op_class::FloatSqrt                      0      0.00%     12.50% # Class of executed instruction
system.cpu.op_class::SimdAdd                        0      0.00%     12.50% # Class of executed instruction
system.cpu.op_class::SimdAddAcc                     0      0.00%     12.50% # Class of executed instruction
system.cpu.op_class::SimdAlu                        0      0.00%     12.50% # Class of executed instruction
system.cpu.op_class::SimdCmp                        0      0.00%     12.50% # Class of executed instruction
system.cpu.op_class::SimdCvt                        0      0.00%     12.50% # Class of executed instruction
system.cpu.op_class::SimdMisc                       0      0.00%     12.50% # Class of executed instruction
system.cpu.op_class::SimdMult                       0      0.00%     12.50% # Class of executed instruction
system.cpu.op_class::SimdMultAcc                    0      0.00%     12.50% # Class of executed instruction
system.cpu.op_class::SimdShift                      0      0.00%     12.50% # Class of executed instruction
system.cpu.op_class::SimdShiftAcc                   0      0.00%     12.50% # Class of executed instruction
system.cpu.op_class::SimdDiv                        0      0.00%     12.50% # Class of executed instruction
system.cpu.op_class::SimdSqrt                       0      0.00%     12.50% # Class of executed instruction
system.cpu.op_class::SimdFloatAdd                   6     37.50%     50.00% # Class of executed instruction
system.cpu.op_class::SimdFloatAlu                   0      0.00%     50.00% # Class of executed instruction
system.cpu.op_class::SimdFloatCmp                   0      0.00%     50.00% # Class of executed instruction
system.cpu.op_class::SimdFloatCvt                   0      0.00%     50.00% # Class of executed instruction
system.cpu.op_class::SimdFloatDiv                   0      0.00%     50.00% # Class of executed instruction
system.cpu.op_class::SimdFloatMisc                  0      0.00%     50.00% # Class of executed instruction
system.cpu.op_class::SimdFloatMult                  2     12.50%     62.50% # Class of executed instruction
system.cpu.op_class::SimdFloatMultAcc               0      0.00%     62.50% # Class of executed instruction
system.cpu.op_class::SimdFloatSqrt                  0      0.00%     62.50% # Class of executed instruction
system.cpu.op_class::SimdReduceAdd                  0      0.00%     62.50% # Class of executed instruction
system.cpu.op_class::SimdReduceAlu                  0      0.00%     62.50% # Class of executed instruction
system.cpu.op_class::SimdReduceCmp                  0      0.00%     62.50% # Class of executed instruction
system.cpu.op_class::SimdFloatReduceAdd             0      0.00%     62.50% # Class of executed instruction
system.cpu.op_class::SimdFloatReduceCmp             0      0.00%     62.50% # Class of executed instruction
system.cpu.op_class::SimdAes                        0      0.00%     62.50% # Class of executed instruction
system.cpu.op_class::SimdAesMix                     0      0.00%     62.50% # Class of executed instruction
system.cpu.op_class::SimdSha1Hash                   0      0.00%     62.50% # Class of executed instruction
system.cpu.op_class::SimdSha1Hash2                  0      0.00%     62.50% # Class of executed instruction
system.cpu.op_class::SimdSha256Hash                 0      0.00%     62.50% # Class of executed instruction
system.cpu.op_class::SimdSha256Hash2                0      0.00%     62.50% # Class of executed instruction
system.cpu.op_class::SimdShaSigma2                  0      0.00%     62.50% # Class of executed instruction
system.cpu.op_class::SimdShaSigma3                  0      0.00%     62.50% # Class of executed instruction
system.cpu.op_class::SimdPredAlu                    0      0.00%     62.50% # Class of executed instruction
system.cpu.op_class::MemRead                        0      0.00%     62.50% # Class of executed instruction
system.cpu.op_class::MemWrite                       0      0.00%     62.50% # Class of executed instruction
system.cpu.op_class::FloatMemRead                   2     12.50%     75.00% # Class of executed instruction
system.cpu.op_class::FloatMemWrite                  4     25.00%    100.00% # Class of executed instruction
system.cpu.op_class::IprAccess                      0      0.00%    100.00% # Class of executed instruction
system.cpu.op_class::InstPrefetch                   0      0.00%    100.00% # Class of executed instruction
system.cpu.op_class::total                         16                       # Class of executed instruction
system.cpu.workload.numSyscalls                     0                       # Number of system calls
system.membus.snoop_filter.hit_multi_requests            0                       # Number of requests hitting in the snoop filter with multiple (>1) holders of the requested data.
system.membus.snoop_filter.hit_multi_snoops            0                       # Number of snoops hitting in the snoop filter with multiple (>1) holders of the requested data.
system.membus.snoop_filter.hit_single_requests        75598                       # Number of requests hitting in the snoop filter with a single holder of the requested data.
system.membus.snoop_filter.hit_single_snoops            0                       # Number of snoops hitting in the snoop filter with a single holder of the requested data.
system.membus.snoop_filter.tot_requests        159676                       # Total number of requests made to the snoop filter.
system.membus.snoop_filter.tot_snoops               0                       # Total number of snoops made to the snoop filter.
system.switch_cpus.branchPred.BTBCorrect            0                       # Number of correct BTB predictions (this stat may not work properly.
system.switch_cpus.branchPred.BTBHitPct      0.000000                       # BTB Hit Percentage
system.switch_cpus.branchPred.BTBHits               0                       # Number of BTB hits
system.switch_cpus.branchPred.BTBLookups        35109                       # Number of BTB lookups
system.switch_cpus.branchPred.RASInCorrect            0                       # Number of incorrect RAS predictions.
system.switch_cpus.branchPred.condIncorrect          789                       # Number of conditional branches incorrect
system.switch_cpus.branchPred.condPredicted        40195                       # Number of conditional branches predicted
system.switch_cpus.branchPred.indirectHits        28176                       # Number of indirect target hits.
system.switch_cpus.branchPred.indirectLookups        35109                       # Number of indirect predictor lookups.
system.switch_cpus.branchPred.indirectMisses         6933                       # Number of indirect misses.
system.switch_cpus.branchPred.lookups           45685                       # Number of BP lookups
system.switch_cpus.branchPred.usedRAS            5114                       # Number of times the RAS was used to get a target.
system.switch_cpus.branchPredindirectMispredicted           52                       # Number of mispredicted indirect branches.
system.switch_cpus.cc_regfile_reads            196484                       # number of cc regfile reads
system.switch_cpus.cc_regfile_writes           329262                       # number of cc regfile writes
system.switch_cpus.commit.amos                      0                       # Number of atomic instructions committed
system.switch_cpus.commit.branchMispredicts          789                       # The number of times a branch was mispredicted
system.switch_cpus.commit.branches              19425                       # Number of branches committed
system.switch_cpus.commit.bw_lim_events       1553228                       # number cycles where commit BW limit reached
system.switch_cpus.commit.commitNonSpecStalls          320                       # The number of times commit has been forced to stall to communicate backwards
system.switch_cpus.commit.commitSquashedInsts       468867                       # The number of squashed insts skipped by commit
system.switch_cpus.commit.committedInsts     10000000                       # Number of instructions committed
system.switch_cpus.commit.committedOps       22477331                       # Number of ops (including micro ops) committed
system.switch_cpus.commit.committed_per_cycle::samples     14726317                       # Number of insts commited each cycle
system.switch_cpus.commit.committed_per_cycle::mean     1.526338                       # Number of insts commited each cycle
system.switch_cpus.commit.committed_per_cycle::stdev     2.716120                       # Number of insts commited each cycle
system.switch_cpus.commit.committed_per_cycle::underflows            0      0.00%      0.00% # Number of insts commited each cycle
system.switch_cpus.commit.committed_per_cycle::0     10054999     68.28%     68.28% # Number of insts commited each cycle
system.switch_cpus.commit.committed_per_cycle::1       676788      4.60%     72.87% # Number of insts commited each cycle
system.switch_cpus.commit.committed_per_cycle::2       823740      5.59%     78.47% # Number of insts commited each cycle
system.switch_cpus.commit.committed_per_cycle::3       262366      1.78%     80.25% # Number of insts commited each cycle
system.switch_cpus.commit.committed_per_cycle::4       563972      3.83%     84.08% # Number of insts commited each cycle
system.switch_cpus.commit.committed_per_cycle::5       260729      1.77%     85.85% # Number of insts commited each cycle
system.switch_cpus.commit.committed_per_cycle::6       332857      2.26%     88.11% # Number of insts commited each cycle
system.switch_cpus.commit.committed_per_cycle::7       197638      1.34%     89.45% # Number of insts commited each cycle
system.switch_cpus.commit.committed_per_cycle::8      1553228     10.55%    100.00% # Number of insts commited each cycle
system.switch_cpus.commit.committed_per_cycle::overflows            0      0.00%    100.00% # Number of insts commited each cycle
system.switch_cpus.commit.committed_per_cycle::min_value            0                       # Number of insts commited each cycle
system.switch_cpus.commit.committed_per_cycle::max_value            8                       # Number of insts commited each cycle
system.switch_cpus.commit.committed_per_cycle::total     14726317                       # Number of insts commited each cycle
system.switch_cpus.commit.fp_insts           21302745                       # Number of committed floating point instructions.
system.switch_cpus.commit.function_calls          320                       # Number of function calls committed.
system.switch_cpus.commit.int_insts          10363713                       # Number of committed integer instructions.
system.switch_cpus.commit.loads               7651132                       # Number of loads committed
system.switch_cpus.commit.membars                   0                       # Number of memory barriers committed
system.switch_cpus.commit.op_class_0::No_OpClass          637      0.00%      0.00% # Class of committed instruction
system.switch_cpus.commit.op_class_0::IntAlu      3034804     13.50%     13.50% # Class of committed instruction
system.switch_cpus.commit.op_class_0::IntMult          658      0.00%     13.51% # Class of committed instruction
system.switch_cpus.commit.op_class_0::IntDiv            0      0.00%     13.51% # Class of committed instruction
system.switch_cpus.commit.op_class_0::FloatAdd          328      0.00%     13.51% # Class of committed instruction
system.switch_cpus.commit.op_class_0::FloatCmp            0      0.00%     13.51% # Class of committed instruction
system.switch_cpus.commit.op_class_0::FloatCvt            0      0.00%     13.51% # Class of committed instruction
system.switch_cpus.commit.op_class_0::FloatMult            0      0.00%     13.51% # Class of committed instruction
system.switch_cpus.commit.op_class_0::FloatMultAcc            0      0.00%     13.51% # Class of committed instruction
system.switch_cpus.commit.op_class_0::FloatDiv            0      0.00%     13.51% # Class of committed instruction
system.switch_cpus.commit.op_class_0::FloatMisc            0      0.00%     13.51% # Class of committed instruction
system.switch_cpus.commit.op_class_0::FloatSqrt            0      0.00%     13.51% # Class of committed instruction
system.switch_cpus.commit.op_class_0::SimdAdd            0      0.00%     13.51% # Class of committed instruction
system.switch_cpus.commit.op_class_0::SimdAddAcc            0      0.00%     13.51% # Class of committed instruction
system.switch_cpus.commit.op_class_0::SimdAlu        47726      0.21%     13.72% # Class of committed instruction
system.switch_cpus.commit.op_class_0::SimdCmp            0      0.00%     13.72% # Class of committed instruction
system.switch_cpus.commit.op_class_0::SimdCvt            0      0.00%     13.72% # Class of committed instruction
system.switch_cpus.commit.op_class_0::SimdMisc            0      0.00%     13.72% # Class of committed instruction
system.switch_cpus.commit.op_class_0::SimdMult            0      0.00%     13.72% # Class of committed instruction
system.switch_cpus.commit.op_class_0::SimdMultAcc            0      0.00%     13.72% # Class of committed instruction
system.switch_cpus.commit.op_class_0::SimdShift            0      0.00%     13.72% # Class of committed instruction
system.switch_cpus.commit.op_class_0::SimdShiftAcc            0      0.00%     13.72% # Class of committed instruction
system.switch_cpus.commit.op_class_0::SimdDiv            0      0.00%     13.72% # Class of committed instruction
system.switch_cpus.commit.op_class_0::SimdSqrt            0      0.00%     13.72% # Class of committed instruction
system.switch_cpus.commit.op_class_0::SimdFloatAdd      5476711     24.37%     38.09% # Class of committed instruction
system.switch_cpus.commit.op_class_0::SimdFloatAlu            0      0.00%     38.09% # Class of committed instruction
system.switch_cpus.commit.op_class_0::SimdFloatCmp            0      0.00%     38.09% # Class of committed instruction
system.switch_cpus.commit.op_class_0::SimdFloatCvt            0      0.00%     38.09% # Class of committed instruction
system.switch_cpus.commit.op_class_0::SimdFloatDiv        11440      0.05%     38.14% # Class of committed instruction
system.switch_cpus.commit.op_class_0::SimdFloatMisc            0      0.00%     38.14% # Class of committed instruction
system.switch_cpus.commit.op_class_0::SimdFloatMult      4002296     17.81%     55.94% # Class of committed instruction
system.switch_cpus.commit.op_class_0::SimdFloatMultAcc            0      0.00%     55.94% # Class of committed instruction
system.switch_cpus.commit.op_class_0::SimdFloatSqrt            0      0.00%     55.94% # Class of committed instruction
system.switch_cpus.commit.op_class_0::SimdReduceAdd            0      0.00%     55.94% # Class of committed instruction
system.switch_cpus.commit.op_class_0::SimdReduceAlu            0      0.00%     55.94% # Class of committed instruction
system.switch_cpus.commit.op_class_0::SimdReduceCmp            0      0.00%     55.94% # Class of committed instruction
system.switch_cpus.commit.op_class_0::SimdFloatReduceAdd            0      0.00%     55.94% # Class of committed instruction
system.switch_cpus.commit.op_class_0::SimdFloatReduceCmp            0      0.00%     55.94% # Class of committed instruction
system.switch_cpus.commit.op_class_0::SimdAes            0      0.00%     55.94% # Class of committed instruction
system.switch_cpus.commit.op_class_0::SimdAesMix            0      0.00%     55.94% # Class of committed instruction
system.switch_cpus.commit.op_class_0::SimdSha1Hash            0      0.00%     55.94% # Class of committed instruction
system.switch_cpus.commit.op_class_0::SimdSha1Hash2            0      0.00%     55.94% # Class of committed instruction
system.switch_cpus.commit.op_class_0::SimdSha256Hash            0      0.00%     55.94% # Class of committed instruction
system.switch_cpus.commit.op_class_0::SimdSha256Hash2            0      0.00%     55.94% # Class of committed instruction
system.switch_cpus.commit.op_class_0::SimdShaSigma2            0      0.00%     55.94% # Class of committed instruction
system.switch_cpus.commit.op_class_0::SimdShaSigma3            0      0.00%     55.94% # Class of committed instruction
system.switch_cpus.commit.op_class_0::SimdPredAlu            0      0.00%     55.94% # Class of committed instruction
system.switch_cpus.commit.op_class_0::MemRead       657014      2.92%     58.87% # Class of committed instruction
system.switch_cpus.commit.op_class_0::MemWrite        55633      0.25%     59.11% # Class of committed instruction
system.switch_cpus.commit.op_class_0::FloatMemRead      6994118     31.12%     90.23% # Class of committed instruction
system.switch_cpus.commit.op_class_0::FloatMemWrite      2195966      9.77%    100.00% # Class of committed instruction
system.switch_cpus.commit.op_class_0::IprAccess            0      0.00%    100.00% # Class of committed instruction
system.switch_cpus.commit.op_class_0::InstPrefetch            0      0.00%    100.00% # Class of committed instruction
system.switch_cpus.commit.op_class_0::total     22477331                       # Class of committed instruction
system.switch_cpus.commit.refs                9902731                       # Number of memory references committed
system.switch_cpus.commit.swp_count                 0                       # Number of s/w prefetches committed
system.switch_cpus.commit.vec_insts                 0                       # Number of committed Vector instructions.
system.switch_cpus.committedInsts            10000000                       # Number of Instructions Simulated
system.switch_cpus.committedOps              22477331                       # Number of Ops (including micro ops) Simulated
system.switch_cpus.cpi                       1.482105                       # CPI: Cycles Per Instruction
system.switch_cpus.cpi_total                 1.482105                       # CPI: Total CPI of All Threads
system.switch_cpus.decode.BlockedCycles      10931850                       # Number of cycles decode is blocked
system.switch_cpus.decode.DecodedInsts       23108010                       # Number of instructions handled by decode
system.switch_cpus.decode.IdleCycles           745577                       # Number of cycles decode is idle
system.switch_cpus.decode.RunCycles           2491341                       # Number of cycles decode is running
system.switch_cpus.decode.SquashCycles           6074                       # Number of cycles decode is squashing
system.switch_cpus.decode.UnblockCycles        612726                       # Number of cycles decode is unblocking
system.switch_cpus.dtb.rdAccesses             7786253                       # TLB accesses on read requests
system.switch_cpus.dtb.rdMisses                  1496                       # TLB misses on read requests
system.switch_cpus.dtb.wrAccesses             2367157                       # TLB accesses on write requests
system.switch_cpus.dtb.wrMisses                   569                       # TLB misses on write requests
system.switch_cpus.fetch.Branches               45685                       # Number of branches that fetch encountered
system.switch_cpus.fetch.CacheLines           1084022                       # Number of cache lines fetched
system.switch_cpus.fetch.Cycles              13676702                       # Number of cycles fetch has run and was not squashing or blocked
system.switch_cpus.fetch.IcacheSquashes           132                       # Number of outstanding Icache misses that were squashed
system.switch_cpus.fetch.Insts               10472971                       # Number of instructions fetch has processed
system.switch_cpus.fetch.SquashCycles           12148                       # Number of cycles fetch has spent squashing
system.switch_cpus.fetch.branchRate          0.003082                       # Number of branch fetches per cycle
system.switch_cpus.fetch.icacheStallCycles      1105134                       # Number of cycles fetch is stalled on an Icache miss
system.switch_cpus.fetch.predictedBranches        33290                       # Number of branches that fetch has predicted taken
system.switch_cpus.fetch.rate                0.706628                       # Number of inst fetches per cycle
system.switch_cpus.fetch.rateDist::samples     14787910                       # Number of instructions fetched each cycle (Total)
system.switch_cpus.fetch.rateDist::mean      1.575886                       # Number of instructions fetched each cycle (Total)
system.switch_cpus.fetch.rateDist::stdev     3.029943                       # Number of instructions fetched each cycle (Total)
system.switch_cpus.fetch.rateDist::underflows            0      0.00%      0.00% # Number of instructions fetched each cycle (Total)
system.switch_cpus.fetch.rateDist::0         11311856     76.49%     76.49% # Number of instructions fetched each cycle (Total)
system.switch_cpus.fetch.rateDist::1           103821      0.70%     77.20% # Number of instructions fetched each cycle (Total)
system.switch_cpus.fetch.rateDist::2           212999      1.44%     78.64% # Number of instructions fetched each cycle (Total)
system.switch_cpus.fetch.rateDist::3           170681      1.15%     79.79% # Number of instructions fetched each cycle (Total)
system.switch_cpus.fetch.rateDist::4           177755      1.20%     80.99% # Number of instructions fetched each cycle (Total)
system.switch_cpus.fetch.rateDist::5           141435      0.96%     81.95% # Number of instructions fetched each cycle (Total)
system.switch_cpus.fetch.rateDist::6           219066      1.48%     83.43% # Number of instructions fetched each cycle (Total)
system.switch_cpus.fetch.rateDist::7            72766      0.49%     83.92% # Number of instructions fetched each cycle (Total)
system.switch_cpus.fetch.rateDist::8          2377531     16.08%    100.00% # Number of instructions fetched each cycle (Total)
system.switch_cpus.fetch.rateDist::overflows            0      0.00%    100.00% # Number of instructions fetched each cycle (Total)
system.switch_cpus.fetch.rateDist::min_value            0                       # Number of instructions fetched each cycle (Total)
system.switch_cpus.fetch.rateDist::max_value            8                       # Number of instructions fetched each cycle (Total)
system.switch_cpus.fetch.rateDist::total     14787910                       # Number of instructions fetched each cycle (Total)
system.switch_cpus.fp_regfile_reads          35988830                       # number of floating regfile reads
system.switch_cpus.fp_regfile_writes         19172354                       # number of floating regfile writes
system.switch_cpus.idleCycles                   33142                       # Total number of cycles that the CPU has spent unscheduled due to idling
system.switch_cpus.iew.branchMispredicts          819                       # Number of branch mispredicts detected at execute
system.switch_cpus.iew.exec_branches            36998                       # Number of branches executed
system.switch_cpus.iew.exec_nop                     0                       # number of nop insts executed
system.switch_cpus.iew.exec_rate             1.560680                       # Inst execution rate
system.switch_cpus.iew.exec_refs             10313479                       # number of memory reference insts executed
system.switch_cpus.iew.exec_stores            2367157                       # Number of stores executed
system.switch_cpus.iew.exec_swp                     0                       # number of swp insts executed
system.switch_cpus.iew.iewBlockCycles          322211                       # Number of cycles IEW is blocking
system.switch_cpus.iew.iewDispLoadInsts       7789855                       # Number of dispatched load instructions
system.switch_cpus.iew.iewDispNonSpecInsts            0                       # Number of dispatched non-speculative instructions
system.switch_cpus.iew.iewDispSquashedInsts           11                       # Number of squashed instructions skipped by dispatch
system.switch_cpus.iew.iewDispStoreInsts      2418840                       # Number of dispatched store instructions
system.switch_cpus.iew.iewDispatchedInsts     23042232                       # Number of instructions dispatched to IQ
system.switch_cpus.iew.iewExecLoadInsts       7946322                       # Number of load instructions executed
system.switch_cpus.iew.iewExecSquashedInsts         4655                       # Number of squashed instructions skipped in execute
system.switch_cpus.iew.iewExecutedInsts      23130916                       # Number of executed instructions
system.switch_cpus.iew.iewIQFullEvents           2827                       # Number of times the IQ has become full, causing a stall
system.switch_cpus.iew.iewIdleCycles                0                       # Number of cycles IEW is idle
system.switch_cpus.iew.iewLSQFullEvents       3712750                       # Number of times the LSQ has become full, causing a stall
system.switch_cpus.iew.iewSquashCycles           6074                       # Number of cycles IEW is squashing
system.switch_cpus.iew.iewUnblockCycles       3720932                       # Number of cycles IEW is unblocking
system.switch_cpus.iew.lsq.thread0.blockedLoads            0                       # Number of blocked loads due to partial load-store forwarding
system.switch_cpus.iew.lsq.thread0.cacheBlocked        29848                       # Number of times an access to memory failed due to the cache being blocked
system.switch_cpus.iew.lsq.thread0.forwLoads       571241                       # Number of loads that had data forwarded from stores
system.switch_cpus.iew.lsq.thread0.ignoredResponses            9                       # Number of memory responses ignored because the instruction is squashed
system.switch_cpus.iew.lsq.thread0.invAddrLoads            0                       # Number of loads ignored due to an invalid address
system.switch_cpus.iew.lsq.thread0.invAddrSwpfs            0                       # Number of software prefetches ignored due to an invalid address
system.switch_cpus.iew.lsq.thread0.memOrderViolation          255                       # Number of memory ordering violations
system.switch_cpus.iew.lsq.thread0.rescheduledLoads            0                       # Number of loads that were rescheduled
system.switch_cpus.iew.lsq.thread0.squashedLoads       138702                       # Number of loads squashed
system.switch_cpus.iew.lsq.thread0.squashedStores       167233                       # Number of stores squashed
system.switch_cpus.iew.memOrderViolationEvents          255                       # Number of memory order violations
system.switch_cpus.iew.predictedNotTakenIncorrect          127                       # Number of branches that were predicted not taken incorrectly
system.switch_cpus.iew.predictedTakenIncorrect          692                       # Number of branches that were predicted taken incorrectly
system.switch_cpus.iew.wb_consumers          28929974                       # num instructions consuming a value
system.switch_cpus.iew.wb_count              22919180                       # cumulative count of insts written-back
system.switch_cpus.iew.wb_fanout             0.606102                       # average fanout of values written-back
system.switch_cpus.iew.wb_producers          17534522                       # num instructions producing a value
system.switch_cpus.iew.wb_rate               1.546394                       # insts written-back per cycle
system.switch_cpus.iew.wb_sent               22962217                       # cumulative count of insts sent to commit
system.switch_cpus.int_regfile_reads         21299935                       # number of integer regfile reads
system.switch_cpus.int_regfile_writes         1345027                       # number of integer regfile writes
system.switch_cpus.ipc                       0.674716                       # IPC: Instructions Per Cycle
system.switch_cpus.ipc_total                 0.674716                       # IPC: Total IPC of All Threads
system.switch_cpus.iq.FU_type_0::No_OpClass        41150      0.18%      0.18% # Type of FU issued
system.switch_cpus.iq.FU_type_0::IntAlu       3237316     13.99%     14.17% # Type of FU issued
system.switch_cpus.iq.FU_type_0::IntMult          658      0.00%     14.17% # Type of FU issued
system.switch_cpus.iq.FU_type_0::IntDiv             0      0.00%     14.17% # Type of FU issued
system.switch_cpus.iq.FU_type_0::FloatAdd         2679      0.01%     14.19% # Type of FU issued
system.switch_cpus.iq.FU_type_0::FloatCmp            0      0.00%     14.19% # Type of FU issued
system.switch_cpus.iq.FU_type_0::FloatCvt            0      0.00%     14.19% # Type of FU issued
system.switch_cpus.iq.FU_type_0::FloatMult            0      0.00%     14.19% # Type of FU issued
system.switch_cpus.iq.FU_type_0::FloatMultAcc            0      0.00%     14.19% # Type of FU issued
system.switch_cpus.iq.FU_type_0::FloatDiv            0      0.00%     14.19% # Type of FU issued
system.switch_cpus.iq.FU_type_0::FloatMisc            0      0.00%     14.19% # Type of FU issued
system.switch_cpus.iq.FU_type_0::FloatSqrt            0      0.00%     14.19% # Type of FU issued
system.switch_cpus.iq.FU_type_0::SimdAdd            0      0.00%     14.19% # Type of FU issued
system.switch_cpus.iq.FU_type_0::SimdAddAcc            0      0.00%     14.19% # Type of FU issued
system.switch_cpus.iq.FU_type_0::SimdAlu        47762      0.21%     14.39% # Type of FU issued
system.switch_cpus.iq.FU_type_0::SimdCmp            0      0.00%     14.39% # Type of FU issued
system.switch_cpus.iq.FU_type_0::SimdCvt            0      0.00%     14.39% # Type of FU issued
system.switch_cpus.iq.FU_type_0::SimdMisc            0      0.00%     14.39% # Type of FU issued
system.switch_cpus.iq.FU_type_0::SimdMult            0      0.00%     14.39% # Type of FU issued
system.switch_cpus.iq.FU_type_0::SimdMultAcc            0      0.00%     14.39% # Type of FU issued
system.switch_cpus.iq.FU_type_0::SimdShift            0      0.00%     14.39% # Type of FU issued
system.switch_cpus.iq.FU_type_0::SimdShiftAcc            0      0.00%     14.39% # Type of FU issued
system.switch_cpus.iq.FU_type_0::SimdDiv            0      0.00%     14.39% # Type of FU issued
system.switch_cpus.iq.FU_type_0::SimdSqrt            0      0.00%     14.39% # Type of FU issued
system.switch_cpus.iq.FU_type_0::SimdFloatAdd      5476928     23.67%     38.06% # Type of FU issued
system.switch_cpus.iq.FU_type_0::SimdFloatAlu            0      0.00%     38.06% # Type of FU issued
system.switch_cpus.iq.FU_type_0::SimdFloatCmp            0      0.00%     38.06% # Type of FU issued
system.switch_cpus.iq.FU_type_0::SimdFloatCvt            0      0.00%     38.06% # Type of FU issued
system.switch_cpus.iq.FU_type_0::SimdFloatDiv        11440      0.05%     38.11% # Type of FU issued
system.switch_cpus.iq.FU_type_0::SimdFloatMisc            0      0.00%     38.11% # Type of FU issued
system.switch_cpus.iq.FU_type_0::SimdFloatMult      4002400     17.30%     55.41% # Type of FU issued
system.switch_cpus.iq.FU_type_0::SimdFloatMultAcc            0      0.00%     55.41% # Type of FU issued
system.switch_cpus.iq.FU_type_0::SimdFloatSqrt            0      0.00%     55.41% # Type of FU issued
system.switch_cpus.iq.FU_type_0::SimdReduceAdd            0      0.00%     55.41% # Type of FU issued
system.switch_cpus.iq.FU_type_0::SimdReduceAlu            0      0.00%     55.41% # Type of FU issued
system.switch_cpus.iq.FU_type_0::SimdReduceCmp            0      0.00%     55.41% # Type of FU issued
system.switch_cpus.iq.FU_type_0::SimdFloatReduceAdd            0      0.00%     55.41% # Type of FU issued
system.switch_cpus.iq.FU_type_0::SimdFloatReduceCmp            0      0.00%     55.41% # Type of FU issued
system.switch_cpus.iq.FU_type_0::SimdAes            0      0.00%     55.41% # Type of FU issued
system.switch_cpus.iq.FU_type_0::SimdAesMix            0      0.00%     55.41% # Type of FU issued
system.switch_cpus.iq.FU_type_0::SimdSha1Hash            0      0.00%     55.41% # Type of FU issued
system.switch_cpus.iq.FU_type_0::SimdSha1Hash2            0      0.00%     55.41% # Type of FU issued
system.switch_cpus.iq.FU_type_0::SimdSha256Hash            0      0.00%     55.41% # Type of FU issued
system.switch_cpus.iq.FU_type_0::SimdSha256Hash2            0      0.00%     55.41% # Type of FU issued
system.switch_cpus.iq.FU_type_0::SimdShaSigma2            0      0.00%     55.41% # Type of FU issued
system.switch_cpus.iq.FU_type_0::SimdShaSigma3            0      0.00%     55.41% # Type of FU issued
system.switch_cpus.iq.FU_type_0::SimdPredAlu            0      0.00%     55.41% # Type of FU issued
system.switch_cpus.iq.FU_type_0::MemRead       763723      3.30%     58.72% # Type of FU issued
system.switch_cpus.iq.FU_type_0::MemWrite        94658      0.41%     59.12% # Type of FU issued
system.switch_cpus.iq.FU_type_0::FloatMemRead      7184209     31.05%     90.18% # Type of FU issued
system.switch_cpus.iq.FU_type_0::FloatMemWrite      2272654      9.82%    100.00% # Type of FU issued
system.switch_cpus.iq.FU_type_0::IprAccess            0      0.00%    100.00% # Type of FU issued
system.switch_cpus.iq.FU_type_0::InstPrefetch            0      0.00%    100.00% # Type of FU issued
system.switch_cpus.iq.FU_type_0::total       23135577                       # Type of FU issued
system.switch_cpus.iq.fp_alu_accesses        22516077                       # Number of floating point alu accesses
system.switch_cpus.iq.fp_inst_queue_reads     44088782                       # Number of floating instruction queue reads
system.switch_cpus.iq.fp_inst_queue_wakeup_accesses     21443199                       # Number of floating instruction queue wakeup accesses
system.switch_cpus.iq.fp_inst_queue_writes     21671156                       # Number of floating instruction queue writes
system.switch_cpus.iq.fu_busy_cnt             1044464                       # FU busy when requested
system.switch_cpus.iq.fu_busy_rate           0.045145                       # FU busy rate (busy events/executed inst)
system.switch_cpus.iq.fu_full::No_OpClass            0      0.00%      0.00% # attempts to use FU when none available
system.switch_cpus.iq.fu_full::IntAlu             603      0.06%      0.06% # attempts to use FU when none available
system.switch_cpus.iq.fu_full::IntMult              0      0.00%      0.06% # attempts to use FU when none available
system.switch_cpus.iq.fu_full::IntDiv               0      0.00%      0.06% # attempts to use FU when none available
system.switch_cpus.iq.fu_full::FloatAdd             0      0.00%      0.06% # attempts to use FU when none available
system.switch_cpus.iq.fu_full::FloatCmp             0      0.00%      0.06% # attempts to use FU when none available
system.switch_cpus.iq.fu_full::FloatCvt             0      0.00%      0.06% # attempts to use FU when none available
system.switch_cpus.iq.fu_full::FloatMult            0      0.00%      0.06% # attempts to use FU when none available
system.switch_cpus.iq.fu_full::FloatMultAcc            0      0.00%      0.06% # attempts to use FU when none available
system.switch_cpus.iq.fu_full::FloatDiv             0      0.00%      0.06% # attempts to use FU when none available
system.switch_cpus.iq.fu_full::FloatMisc            0      0.00%      0.06% # attempts to use FU when none available
system.switch_cpus.iq.fu_full::FloatSqrt            0      0.00%      0.06% # attempts to use FU when none available
system.switch_cpus.iq.fu_full::SimdAdd              0      0.00%      0.06% # attempts to use FU when none available
system.switch_cpus.iq.fu_full::SimdAddAcc            0      0.00%      0.06% # attempts to use FU when none available
system.switch_cpus.iq.fu_full::SimdAlu              0      0.00%      0.06% # attempts to use FU when none available
system.switch_cpus.iq.fu_full::SimdCmp              0      0.00%      0.06% # attempts to use FU when none available
system.switch_cpus.iq.fu_full::SimdCvt              0      0.00%      0.06% # attempts to use FU when none available
system.switch_cpus.iq.fu_full::SimdMisc             0      0.00%      0.06% # attempts to use FU when none available
system.switch_cpus.iq.fu_full::SimdMult             0      0.00%      0.06% # attempts to use FU when none available
system.switch_cpus.iq.fu_full::SimdMultAcc            0      0.00%      0.06% # attempts to use FU when none available
system.switch_cpus.iq.fu_full::SimdShift            0      0.00%      0.06% # attempts to use FU when none available
system.switch_cpus.iq.fu_full::SimdShiftAcc            0      0.00%      0.06% # attempts to use FU when none available
system.switch_cpus.iq.fu_full::SimdDiv              0      0.00%      0.06% # attempts to use FU when none available
system.switch_cpus.iq.fu_full::SimdSqrt             0      0.00%      0.06% # attempts to use FU when none available
system.switch_cpus.iq.fu_full::SimdFloatAdd       123802     11.85%     11.91% # attempts to use FU when none available
system.switch_cpus.iq.fu_full::SimdFloatAlu            0      0.00%     11.91% # attempts to use FU when none available
system.switch_cpus.iq.fu_full::SimdFloatCmp            0      0.00%     11.91% # attempts to use FU when none available
system.switch_cpus.iq.fu_full::SimdFloatCvt            0      0.00%     11.91% # attempts to use FU when none available
system.switch_cpus.iq.fu_full::SimdFloatDiv            0      0.00%     11.91% # attempts to use FU when none available
system.switch_cpus.iq.fu_full::SimdFloatMisc            0      0.00%     11.91% # attempts to use FU when none available
system.switch_cpus.iq.fu_full::SimdFloatMult       262746     25.16%     37.07% # attempts to use FU when none available
system.switch_cpus.iq.fu_full::SimdFloatMultAcc            0      0.00%     37.07% # attempts to use FU when none available
system.switch_cpus.iq.fu_full::SimdFloatSqrt            0      0.00%     37.07% # attempts to use FU when none available
system.switch_cpus.iq.fu_full::SimdReduceAdd            0      0.00%     37.07% # attempts to use FU when none available
system.switch_cpus.iq.fu_full::SimdReduceAlu            0      0.00%     37.07% # attempts to use FU when none available
system.switch_cpus.iq.fu_full::SimdReduceCmp            0      0.00%     37.07% # attempts to use FU when none available
system.switch_cpus.iq.fu_full::SimdFloatReduceAdd            0      0.00%     37.07% # attempts to use FU when none available
system.switch_cpus.iq.fu_full::SimdFloatReduceCmp            0      0.00%     37.07% # attempts to use FU when none available
system.switch_cpus.iq.fu_full::SimdAes              0      0.00%     37.07% # attempts to use FU when none available
system.switch_cpus.iq.fu_full::SimdAesMix            0      0.00%     37.07% # attempts to use FU when none available
system.switch_cpus.iq.fu_full::SimdSha1Hash            0      0.00%     37.07% # attempts to use FU when none available
system.switch_cpus.iq.fu_full::SimdSha1Hash2            0      0.00%     37.07% # attempts to use FU when none available
system.switch_cpus.iq.fu_full::SimdSha256Hash            0      0.00%     37.07% # attempts to use FU when none available
system.switch_cpus.iq.fu_full::SimdSha256Hash2            0      0.00%     37.07% # attempts to use FU when none available
system.switch_cpus.iq.fu_full::SimdShaSigma2            0      0.00%     37.07% # attempts to use FU when none available
system.switch_cpus.iq.fu_full::SimdShaSigma3            0      0.00%     37.07% # attempts to use FU when none available
system.switch_cpus.iq.fu_full::SimdPredAlu            0      0.00%     37.07% # attempts to use FU when none available
system.switch_cpus.iq.fu_full::MemRead          88583      8.48%     45.55% # attempts to use FU when none available
system.switch_cpus.iq.fu_full::MemWrite         11510      1.10%     46.65% # attempts to use FU when none available
system.switch_cpus.iq.fu_full::FloatMemRead       500882     47.96%     94.61% # attempts to use FU when none available
system.switch_cpus.iq.fu_full::FloatMemWrite        56338      5.39%    100.00% # attempts to use FU when none available
system.switch_cpus.iq.fu_full::IprAccess            0      0.00%    100.00% # attempts to use FU when none available
system.switch_cpus.iq.fu_full::InstPrefetch            0      0.00%    100.00% # attempts to use FU when none available
system.switch_cpus.iq.int_alu_accesses        1622814                       # Number of integer alu accesses
system.switch_cpus.iq.int_inst_queue_reads     18015256                       # Number of integer instruction queue reads
system.switch_cpus.iq.int_inst_queue_wakeup_accesses      1475981                       # Number of integer instruction queue wakeup accesses
system.switch_cpus.iq.int_inst_queue_writes      1936180                       # Number of integer instruction queue writes
system.switch_cpus.iq.iqInstsAdded           23038387                       # Number of instructions added to the IQ (excludes non-spec)
system.switch_cpus.iq.iqInstsIssued          23135577                       # Number of instructions issued
system.switch_cpus.iq.iqNonSpecInstsAdded         3845                       # Number of non-speculative instructions added to the IQ
system.switch_cpus.iq.iqSquashedInstsExamined       564849                       # Number of squashed instructions iterated over during squash; mainly for profiling
system.switch_cpus.iq.iqSquashedInstsIssued          516                       # Number of squashed instructions issued
system.switch_cpus.iq.iqSquashedNonSpecRemoved         3525                       # Number of squashed non-spec instructions that were removed
system.switch_cpus.iq.iqSquashedOperandsExamined       276349                       # Number of squashed operands that are examined and possibly removed from graph
system.switch_cpus.iq.issued_per_cycle::samples     14787910                       # Number of insts issued each cycle
system.switch_cpus.iq.issued_per_cycle::mean     1.564493                       # Number of insts issued each cycle
system.switch_cpus.iq.issued_per_cycle::stdev     2.448205                       # Number of insts issued each cycle
system.switch_cpus.iq.issued_per_cycle::underflows            0      0.00%      0.00% # Number of insts issued each cycle
system.switch_cpus.iq.issued_per_cycle::0      9407588     63.62%     63.62% # Number of insts issued each cycle
system.switch_cpus.iq.issued_per_cycle::1       687715      4.65%     68.27% # Number of insts issued each cycle
system.switch_cpus.iq.issued_per_cycle::2       700592      4.74%     73.00% # Number of insts issued each cycle
system.switch_cpus.iq.issued_per_cycle::3       635116      4.29%     77.30% # Number of insts issued each cycle
system.switch_cpus.iq.issued_per_cycle::4       891889      6.03%     83.33% # Number of insts issued each cycle
system.switch_cpus.iq.issued_per_cycle::5       706275      4.78%     88.11% # Number of insts issued each cycle
system.switch_cpus.iq.issued_per_cycle::6       774902      5.24%     93.35% # Number of insts issued each cycle
system.switch_cpus.iq.issued_per_cycle::7       477677      3.23%     96.58% # Number of insts issued each cycle
system.switch_cpus.iq.issued_per_cycle::8       506156      3.42%    100.00% # Number of insts issued each cycle
system.switch_cpus.iq.issued_per_cycle::overflows            0      0.00%    100.00% # Number of insts issued each cycle
system.switch_cpus.iq.issued_per_cycle::min_value            0                       # Number of insts issued each cycle
system.switch_cpus.iq.issued_per_cycle::max_value            8                       # Number of insts issued each cycle
system.switch_cpus.iq.issued_per_cycle::total     14787910                       # Number of insts issued each cycle
system.switch_cpus.iq.rate                   1.560994                       # Inst issue rate
system.switch_cpus.iq.vec_alu_accesses              0                       # Number of vector alu accesses
system.switch_cpus.iq.vec_inst_queue_reads            0                       # Number of vector instruction queue reads
system.switch_cpus.iq.vec_inst_queue_wakeup_accesses            0                       # Number of vector instruction queue wakeup accesses
system.switch_cpus.iq.vec_inst_queue_writes            0                       # Number of vector instruction queue writes
system.switch_cpus.itb.rdAccesses                   0                       # TLB accesses on read requests
system.switch_cpus.itb.rdMisses                     0                       # TLB misses on read requests
system.switch_cpus.itb.wrAccesses             1084022                       # TLB accesses on write requests
system.switch_cpus.itb.wrMisses                    10                       # TLB misses on write requests
system.switch_cpus.memDep0.conflictingLoads        23140                       # Number of conflicting loads.
system.switch_cpus.memDep0.conflictingStores        96131                       # Number of conflicting stores.
system.switch_cpus.memDep0.insertedLoads      7789855                       # Number of loads inserted to the mem dependence unit.
system.switch_cpus.memDep0.insertedStores      2418840                       # Number of stores inserted to the mem dependence unit.
system.switch_cpus.misc_regfile_reads        10621211                       # number of misc regfile reads
system.switch_cpus.misc_regfile_writes              1                       # number of misc regfile writes
system.switch_cpus.numCycles                 14821052                       # number of cpu cycles simulated
system.switch_cpus.numWorkItemsCompleted            0                       # number of work items this cpu completed
system.switch_cpus.numWorkItemsStarted              0                       # number of work items this cpu started
system.switch_cpus.rename.BlockCycles         4099264                       # Number of cycles rename is blocking
system.switch_cpus.rename.CommittedMaps      20390922                       # Number of HB maps that are committed
system.switch_cpus.rename.IQFullEvents         208591                       # Number of times rename has blocked due to IQ full
system.switch_cpus.rename.IdleCycles          1025925                       # Number of cycles rename is idle
system.switch_cpus.rename.LQFullEvents        2352609                       # Number of times rename has blocked due to LQ full
system.switch_cpus.rename.ROBFullEvents         10826                       # Number of times rename has blocked due to ROB full
system.switch_cpus.rename.RenameLookups      67937064                       # Number of register rename lookups that rename has made
system.switch_cpus.rename.RenamedInsts       23064305                       # Number of instructions processed by rename
system.switch_cpus.rename.RenamedOperands     20905901                       # Number of destination operands rename has renamed
system.switch_cpus.rename.RunCycles           2815723                       # Number of cycles rename is running
system.switch_cpus.rename.SQFullEvents        4266323                       # Number of times rename has blocked due to SQ full
system.switch_cpus.rename.SquashCycles           6074                       # Number of cycles rename is squashing
system.switch_cpus.rename.UnblockCycles       6840582                       # Number of cycles rename is unblocking
system.switch_cpus.rename.UndoneMaps           514923                       # Number of HB maps that are undone due to squashing
system.switch_cpus.rename.fp_rename_lookups     36040522                       # Number of floating rename lookups
system.switch_cpus.rename.int_rename_lookups     21167444                       # Number of integer rename lookups
system.switch_cpus.rename.serializeStallCycles            0                       # count of cycles rename stalled for serializing inst
system.switch_cpus.rename.serializingInsts            0                       # count of serializing insts renamed
system.switch_cpus.rename.skidInsts           3780611                       # count of insts added to the skid buffer
system.switch_cpus.rename.tempSerializingInsts            0                       # count of temporary serializing insts renamed
system.switch_cpus.rob.rob_reads             36052727                       # The number of ROB reads
system.switch_cpus.rob.rob_writes            45954060                       # The number of ROB writes
system.switch_cpus.timesIdled                     363                       # Number of times that the entire CPU went into an idle state and unscheduled itself
system.tol2bus.snoop_filter.hit_multi_requests            0                       # Number of requests hitting in the snoop filter with multiple (>1) holders of the requested data.
system.tol2bus.snoop_filter.hit_multi_snoops            0                       # Number of snoops hitting in the snoop filter with multiple (>1) holders of the requested data.
system.tol2bus.snoop_filter.hit_single_requests       110723                       # Number of requests hitting in the snoop filter with a single holder of the requested data.
system.tol2bus.snoop_filter.hit_single_snoops          518                       # Number of snoops hitting in the snoop filter with a single holder of the requested data.
system.tol2bus.snoop_filter.tot_requests       222751                       # Total number of requests made to the snoop filter.
system.tol2bus.snoop_filter.tot_snoops            518                       # Total number of snoops made to the snoop filter.
system.membus.pwrStateResidencyTicks::UNDEFINED 560741437986500                       # Cumulative time (in ticks) in various power states
system.membus.trans_dist::ReadResp              61419                       # Transaction distribution
system.membus.trans_dist::WritebackDirty        27144                       # Transaction distribution
system.membus.trans_dist::CleanEvict            48454                       # Transaction distribution
system.membus.trans_dist::ReadExReq             22659                       # Transaction distribution
system.membus.trans_dist::ReadExResp            22659                       # Transaction distribution
system.membus.trans_dist::ReadSharedReq         61419                       # Transaction distribution
system.membus.pkt_count_system.l2.mem_side::system.mem_ctrls.port       243754                       # Packet count per connected master and slave (bytes)
system.membus.pkt_count_system.l2.mem_side::total       243754                       # Packet count per connected master and slave (bytes)
system.membus.pkt_count::total                 243754                       # Packet count per connected master and slave (bytes)
system.membus.pkt_size_system.l2.mem_side::system.mem_ctrls.port      7118208                       # Cumulative packet size per connected master and slave (bytes)
system.membus.pkt_size_system.l2.mem_side::total      7118208                       # Cumulative packet size per connected master and slave (bytes)
system.membus.pkt_size::total                 7118208                       # Cumulative packet size per connected master and slave (bytes)
system.membus.snoops                                0                       # Total snoops (count)
system.membus.snoopTraffic                          0                       # Total snoop traffic (bytes)
system.membus.snoop_fanout::samples             84078                       # Request fanout histogram
system.membus.snoop_fanout::mean                    0                       # Request fanout histogram
system.membus.snoop_fanout::stdev                   0                       # Request fanout histogram
system.membus.snoop_fanout::underflows              0      0.00%      0.00% # Request fanout histogram
system.membus.snoop_fanout::0                   84078    100.00%    100.00% # Request fanout histogram
system.membus.snoop_fanout::1                       0      0.00%    100.00% # Request fanout histogram
system.membus.snoop_fanout::overflows               0      0.00%    100.00% # Request fanout histogram
system.membus.snoop_fanout::min_value               0                       # Request fanout histogram
system.membus.snoop_fanout::max_value               0                       # Request fanout histogram
system.membus.snoop_fanout::total               84078                       # Request fanout histogram
system.membus.reqLayer2.occupancy           282742000                       # Layer occupancy (ticks)
system.membus.reqLayer2.utilization               3.8                       # Layer utilization (%)
system.membus.respLayer1.occupancy          465585250                       # Layer occupancy (ticks)
system.membus.respLayer1.utilization              6.3                       # Layer utilization (%)
system.switch_cpus.pwrStateResidencyTicks::OFF   7410536500                       # Cumulative time (in ticks) in various power states
system.switch_cpus.dtb.walker.pwrStateResidencyTicks::UNDEFINED 560741437986500                       # Cumulative time (in ticks) in various power states
system.switch_cpus.itb.walker.pwrStateResidencyTicks::UNDEFINED 560741437986500                       # Cumulative time (in ticks) in various power states
system.tol2bus.pwrStateResidencyTicks::UNDEFINED 560741437986500                       # Cumulative time (in ticks) in various power states
system.tol2bus.trans_dist::ReadResp             81122                       # Transaction distribution
system.tol2bus.trans_dist::WritebackDirty        68953                       # Transaction distribution
system.tol2bus.trans_dist::WritebackClean          116                       # Transaction distribution
system.tol2bus.trans_dist::CleanEvict          117762                       # Transaction distribution
system.tol2bus.trans_dist::ReadExReq            30906                       # Transaction distribution
system.tol2bus.trans_dist::ReadExResp           30906                       # Transaction distribution
system.tol2bus.trans_dist::ReadCleanReq           397                       # Transaction distribution
system.tol2bus.trans_dist::ReadSharedReq        80725                       # Transaction distribution
system.tol2bus.pkt_count_system.cpu.icache.mem_side::system.l2.cpu_side          910                       # Packet count per connected master and slave (bytes)
system.tol2bus.pkt_count_system.cpu.dcache.mem_side::system.l2.cpu_side       333869                       # Packet count per connected master and slave (bytes)
system.tol2bus.pkt_count::total                334779                       # Packet count per connected master and slave (bytes)
system.tol2bus.pkt_size_system.cpu.icache.mem_side::system.l2.cpu_side        32832                       # Cumulative packet size per connected master and slave (bytes)
system.tol2bus.pkt_size_system.cpu.dcache.mem_side::system.l2.cpu_side      9820160                       # Cumulative packet size per connected master and slave (bytes)
system.tol2bus.pkt_size::total                9852992                       # Cumulative packet size per connected master and slave (bytes)
system.tol2bus.snoops                           76108                       # Total snoops (count)
system.tol2bus.snoopTraffic                   1737216                       # Total snoop traffic (bytes)
system.tol2bus.snoop_fanout::samples           188136                       # Request fanout histogram
system.tol2bus.snoop_fanout::mean            0.002753                       # Request fanout histogram
system.tol2bus.snoop_fanout::stdev           0.052400                       # Request fanout histogram
system.tol2bus.snoop_fanout::underflows             0      0.00%      0.00% # Request fanout histogram
system.tol2bus.snoop_fanout::0                 187618     99.72%     99.72% # Request fanout histogram
system.tol2bus.snoop_fanout::1                    518      0.28%    100.00% # Request fanout histogram
system.tol2bus.snoop_fanout::2                      0      0.00%    100.00% # Request fanout histogram
system.tol2bus.snoop_fanout::3                      0      0.00%    100.00% # Request fanout histogram
system.tol2bus.snoop_fanout::4                      0      0.00%    100.00% # Request fanout histogram
system.tol2bus.snoop_fanout::overflows              0      0.00%    100.00% # Request fanout histogram
system.tol2bus.snoop_fanout::min_value              0                       # Request fanout histogram
system.tol2bus.snoop_fanout::max_value              1                       # Request fanout histogram
system.tol2bus.snoop_fanout::total             188136                       # Request fanout histogram
system.tol2bus.reqLayer0.occupancy          153298000                       # Layer occupancy (ticks)
system.tol2bus.reqLayer0.utilization              2.1                       # Layer utilization (%)
system.tol2bus.respLayer1.occupancy         167442000                       # Layer occupancy (ticks)
system.tol2bus.respLayer1.utilization             2.3                       # Layer utilization (%)
system.tol2bus.respLayer0.occupancy            592999                       # Layer occupancy (ticks)
system.tol2bus.respLayer0.utilization             0.0                       # Layer utilization (%)
system.voltage_domain.voltage                       1                       # Voltage in Volts
system.clk_domain.clock                          1000                       # Clock period in ticks
system.l2.pwrStateResidencyTicks::UNDEFINED 560741437986500                       # Cumulative time (in ticks) in various power states
system.l2.demand_hits::.switch_cpus.inst           69                       # number of demand (read+write) hits
system.l2.demand_hits::.switch_cpus.data        27881                       # number of demand (read+write) hits
system.l2.demand_hits::total                    27950                       # number of demand (read+write) hits
system.l2.overall_hits::.switch_cpus.inst           69                       # number of overall hits
system.l2.overall_hits::.switch_cpus.data        27881                       # number of overall hits
system.l2.overall_hits::total                   27950                       # number of overall hits
system.l2.demand_misses::.cpu.inst                  2                       # number of demand (read+write) misses
system.l2.demand_misses::.cpu.data                  3                       # number of demand (read+write) misses
system.l2.demand_misses::.switch_cpus.inst          326                       # number of demand (read+write) misses
system.l2.demand_misses::.switch_cpus.data        83747                       # number of demand (read+write) misses
system.l2.demand_misses::total                  84078                       # number of demand (read+write) misses
system.l2.overall_misses::.cpu.inst                 2                       # number of overall misses
system.l2.overall_misses::.cpu.data                 3                       # number of overall misses
system.l2.overall_misses::.switch_cpus.inst          326                       # number of overall misses
system.l2.overall_misses::.switch_cpus.data        83747                       # number of overall misses
system.l2.overall_misses::total                 84078                       # number of overall misses
system.l2.demand_miss_latency::.switch_cpus.inst     25226500                       # number of demand (read+write) miss cycles
system.l2.demand_miss_latency::.switch_cpus.data   8523798000                       # number of demand (read+write) miss cycles
system.l2.demand_miss_latency::total       8549024500                       # number of demand (read+write) miss cycles
system.l2.overall_miss_latency::.switch_cpus.inst     25226500                       # number of overall miss cycles
system.l2.overall_miss_latency::.switch_cpus.data   8523798000                       # number of overall miss cycles
system.l2.overall_miss_latency::total      8549024500                       # number of overall miss cycles
system.l2.demand_accesses::.cpu.inst                2                       # number of demand (read+write) accesses
system.l2.demand_accesses::.cpu.data                3                       # number of demand (read+write) accesses
system.l2.demand_accesses::.switch_cpus.inst          395                       # number of demand (read+write) accesses
system.l2.demand_accesses::.switch_cpus.data       111628                       # number of demand (read+write) accesses
system.l2.demand_accesses::total               112028                       # number of demand (read+write) accesses
system.l2.overall_accesses::.cpu.inst               2                       # number of overall (read+write) accesses
system.l2.overall_accesses::.cpu.data               3                       # number of overall (read+write) accesses
system.l2.overall_accesses::.switch_cpus.inst          395                       # number of overall (read+write) accesses
system.l2.overall_accesses::.switch_cpus.data       111628                       # number of overall (read+write) accesses
system.l2.overall_accesses::total              112028                       # number of overall (read+write) accesses
system.l2.demand_miss_rate::.cpu.inst               1                       # miss rate for demand accesses
system.l2.demand_miss_rate::.cpu.data               1                       # miss rate for demand accesses
system.l2.demand_miss_rate::.switch_cpus.inst     0.825316                       # miss rate for demand accesses
system.l2.demand_miss_rate::.switch_cpus.data     0.750233                       # miss rate for demand accesses
system.l2.demand_miss_rate::total            0.750509                       # miss rate for demand accesses
system.l2.overall_miss_rate::.cpu.inst              1                       # miss rate for overall accesses
system.l2.overall_miss_rate::.cpu.data              1                       # miss rate for overall accesses
system.l2.overall_miss_rate::.switch_cpus.inst     0.825316                       # miss rate for overall accesses
system.l2.overall_miss_rate::.switch_cpus.data     0.750233                       # miss rate for overall accesses
system.l2.overall_miss_rate::total           0.750509                       # miss rate for overall accesses
system.l2.demand_avg_miss_latency::.switch_cpus.inst 77381.901840                       # average overall miss latency
system.l2.demand_avg_miss_latency::.switch_cpus.data 101780.338400                       # average overall miss latency
system.l2.demand_avg_miss_latency::total 101679.684341                       # average overall miss latency
system.l2.overall_avg_miss_latency::.switch_cpus.inst 77381.901840                       # average overall miss latency
system.l2.overall_avg_miss_latency::.switch_cpus.data 101780.338400                       # average overall miss latency
system.l2.overall_avg_miss_latency::total 101679.684341                       # average overall miss latency
system.l2.blocked_cycles::no_mshrs                  0                       # number of cycles access was blocked
system.l2.blocked_cycles::no_targets                0                       # number of cycles access was blocked
system.l2.blocked::no_mshrs                         0                       # number of cycles access was blocked
system.l2.blocked::no_targets                       0                       # number of cycles access was blocked
system.l2.avg_blocked_cycles::no_mshrs            nan                       # average number of cycles each access was blocked
system.l2.avg_blocked_cycles::no_targets          nan                       # average number of cycles each access was blocked
system.l2.writebacks::.writebacks               27144                       # number of writebacks
system.l2.writebacks::total                     27144                       # number of writebacks
system.l2.demand_mshr_misses::.switch_cpus.inst          326                       # number of demand (read+write) MSHR misses
system.l2.demand_mshr_misses::.switch_cpus.data        83747                       # number of demand (read+write) MSHR misses
system.l2.demand_mshr_misses::total             84073                       # number of demand (read+write) MSHR misses
system.l2.overall_mshr_misses::.switch_cpus.inst          326                       # number of overall MSHR misses
system.l2.overall_mshr_misses::.switch_cpus.data        83747                       # number of overall MSHR misses
system.l2.overall_mshr_misses::total            84073                       # number of overall MSHR misses
system.l2.demand_mshr_miss_latency::.switch_cpus.inst     21966500                       # number of demand (read+write) MSHR miss cycles
system.l2.demand_mshr_miss_latency::.switch_cpus.data   7686328000                       # number of demand (read+write) MSHR miss cycles
system.l2.demand_mshr_miss_latency::total   7708294500                       # number of demand (read+write) MSHR miss cycles
system.l2.overall_mshr_miss_latency::.switch_cpus.inst     21966500                       # number of overall MSHR miss cycles
system.l2.overall_mshr_miss_latency::.switch_cpus.data   7686328000                       # number of overall MSHR miss cycles
system.l2.overall_mshr_miss_latency::total   7708294500                       # number of overall MSHR miss cycles
system.l2.demand_mshr_miss_rate::.switch_cpus.inst     0.825316                       # mshr miss rate for demand accesses
system.l2.demand_mshr_miss_rate::.switch_cpus.data     0.750233                       # mshr miss rate for demand accesses
system.l2.demand_mshr_miss_rate::total       0.750464                       # mshr miss rate for demand accesses
system.l2.overall_mshr_miss_rate::.switch_cpus.inst     0.825316                       # mshr miss rate for overall accesses
system.l2.overall_mshr_miss_rate::.switch_cpus.data     0.750233                       # mshr miss rate for overall accesses
system.l2.overall_mshr_miss_rate::total      0.750464                       # mshr miss rate for overall accesses
system.l2.demand_avg_mshr_miss_latency::.switch_cpus.inst 67381.901840                       # average overall mshr miss latency
system.l2.demand_avg_mshr_miss_latency::.switch_cpus.data 91780.338400                       # average overall mshr miss latency
system.l2.demand_avg_mshr_miss_latency::total 91685.731448                       # average overall mshr miss latency
system.l2.overall_avg_mshr_miss_latency::.switch_cpus.inst 67381.901840                       # average overall mshr miss latency
system.l2.overall_avg_mshr_miss_latency::.switch_cpus.data 91780.338400                       # average overall mshr miss latency
system.l2.overall_avg_mshr_miss_latency::total 91685.731448                       # average overall mshr miss latency
system.l2.replacements                          76108                       # number of replacements
system.l2.WritebackDirty_hits::.writebacks        41809                       # number of WritebackDirty hits
system.l2.WritebackDirty_hits::total            41809                       # number of WritebackDirty hits
system.l2.WritebackDirty_accesses::.writebacks        41809                       # number of WritebackDirty accesses(hits+misses)
system.l2.WritebackDirty_accesses::total        41809                       # number of WritebackDirty accesses(hits+misses)
system.l2.WritebackClean_hits::.writebacks          116                       # number of WritebackClean hits
system.l2.WritebackClean_hits::total              116                       # number of WritebackClean hits
system.l2.WritebackClean_accesses::.writebacks          116                       # number of WritebackClean accesses(hits+misses)
system.l2.WritebackClean_accesses::total          116                       # number of WritebackClean accesses(hits+misses)
system.l2.CleanEvict_mshr_misses::.writebacks            8                       # number of CleanEvict MSHR misses
system.l2.CleanEvict_mshr_misses::total             8                       # number of CleanEvict MSHR misses
system.l2.CleanEvict_mshr_miss_rate::.writebacks          inf                       # mshr miss rate for CleanEvict accesses
system.l2.CleanEvict_mshr_miss_rate::total          inf                       # mshr miss rate for CleanEvict accesses
system.l2.ReadExReq_hits::.switch_cpus.data         8247                       # number of ReadExReq hits
system.l2.ReadExReq_hits::total                  8247                       # number of ReadExReq hits
system.l2.ReadExReq_misses::.cpu.data               2                       # number of ReadExReq misses
system.l2.ReadExReq_misses::.switch_cpus.data        22657                       # number of ReadExReq misses
system.l2.ReadExReq_misses::total               22659                       # number of ReadExReq misses
system.l2.ReadExReq_miss_latency::.switch_cpus.data   2249065000                       # number of ReadExReq miss cycles
system.l2.ReadExReq_miss_latency::total    2249065000                       # number of ReadExReq miss cycles
system.l2.ReadExReq_accesses::.cpu.data             2                       # number of ReadExReq accesses(hits+misses)
system.l2.ReadExReq_accesses::.switch_cpus.data        30904                       # number of ReadExReq accesses(hits+misses)
system.l2.ReadExReq_accesses::total             30906                       # number of ReadExReq accesses(hits+misses)
system.l2.ReadExReq_miss_rate::.cpu.data            1                       # miss rate for ReadExReq accesses
system.l2.ReadExReq_miss_rate::.switch_cpus.data     0.733141                       # miss rate for ReadExReq accesses
system.l2.ReadExReq_miss_rate::total         0.733159                       # miss rate for ReadExReq accesses
system.l2.ReadExReq_avg_miss_latency::.switch_cpus.data 99265.789822                       # average ReadExReq miss latency
system.l2.ReadExReq_avg_miss_latency::total 99257.028112                       # average ReadExReq miss latency
system.l2.ReadExReq_mshr_misses::.switch_cpus.data        22657                       # number of ReadExReq MSHR misses
system.l2.ReadExReq_mshr_misses::total          22657                       # number of ReadExReq MSHR misses
system.l2.ReadExReq_mshr_miss_latency::.switch_cpus.data   2022495000                       # number of ReadExReq MSHR miss cycles
system.l2.ReadExReq_mshr_miss_latency::total   2022495000                       # number of ReadExReq MSHR miss cycles
system.l2.ReadExReq_mshr_miss_rate::.switch_cpus.data     0.733141                       # mshr miss rate for ReadExReq accesses
system.l2.ReadExReq_mshr_miss_rate::total     0.733094                       # mshr miss rate for ReadExReq accesses
system.l2.ReadExReq_avg_mshr_miss_latency::.switch_cpus.data 89265.789822                       # average ReadExReq mshr miss latency
system.l2.ReadExReq_avg_mshr_miss_latency::total 89265.789822                       # average ReadExReq mshr miss latency
system.l2.ReadCleanReq_hits::.switch_cpus.inst           69                       # number of ReadCleanReq hits
system.l2.ReadCleanReq_hits::total                 69                       # number of ReadCleanReq hits
system.l2.ReadCleanReq_misses::.cpu.inst            2                       # number of ReadCleanReq misses
system.l2.ReadCleanReq_misses::.switch_cpus.inst          326                       # number of ReadCleanReq misses
system.l2.ReadCleanReq_misses::total              328                       # number of ReadCleanReq misses
system.l2.ReadCleanReq_miss_latency::.switch_cpus.inst     25226500                       # number of ReadCleanReq miss cycles
system.l2.ReadCleanReq_miss_latency::total     25226500                       # number of ReadCleanReq miss cycles
system.l2.ReadCleanReq_accesses::.cpu.inst            2                       # number of ReadCleanReq accesses(hits+misses)
system.l2.ReadCleanReq_accesses::.switch_cpus.inst          395                       # number of ReadCleanReq accesses(hits+misses)
system.l2.ReadCleanReq_accesses::total            397                       # number of ReadCleanReq accesses(hits+misses)
system.l2.ReadCleanReq_miss_rate::.cpu.inst            1                       # miss rate for ReadCleanReq accesses
system.l2.ReadCleanReq_miss_rate::.switch_cpus.inst     0.825316                       # miss rate for ReadCleanReq accesses
system.l2.ReadCleanReq_miss_rate::total      0.826196                       # miss rate for ReadCleanReq accesses
system.l2.ReadCleanReq_avg_miss_latency::.switch_cpus.inst 77381.901840                       # average ReadCleanReq miss latency
system.l2.ReadCleanReq_avg_miss_latency::total 76910.060976                       # average ReadCleanReq miss latency
[...]
system.cpu.dtb_walker_cache.pwrStateResidencyTicks::UNDEFINED 560764034368000                       # Cumulative time (in ticks) in various power states
system.cpu.dtb_walker_cache.blocked_cycles::no_mshrs            0                       # number of cycles access was blocked
system.cpu.dtb_walker_cache.blocked_cycles::no_targets            0                       # number of cycles access was blocked
system.cpu.dtb_walker_cache.blocked::no_mshrs            0                       # number of cycles access was blocked
system.cpu.dtb_walker_cache.blocked::no_targets            0                       # number of cycles access was blocked
system.cpu.dtb_walker_cache.avg_blocked_cycles::no_mshrs          nan                       # average number of cycles each access was blocked
system.cpu.dtb_walker_cache.avg_blocked_cycles::no_targets          nan                       # average number of cycles each access was blocked
system.cpu.dtb_walker_cache.replacements            0                       # number of replacements
system.cpu.dtb_walker_cache.tags.pwrStateResidencyTicks::UNDEFINED 560764034368000                       # Cumulative time (in ticks) in various power states
system.cpu.dtb_walker_cache.tags.tagsinuse            0                       # Cycle average of tags in use
system.cpu.dtb_walker_cache.tags.total_refs            0                       # Total number of references to valid blocks.
system.cpu.dtb_walker_cache.tags.sampled_refs            0                       # Sample count of references to valid blocks.
system.cpu.dtb_walker_cache.tags.avg_refs          nan                       # Average number of references to valid blocks.
system.cpu.dtb_walker_cache.tags.warmup_cycle            0                       # Cycle when the warmup percentage was hit.
system.cpu.dtb_walker_cache.tags.tag_accesses            0                       # Number of tag accesses
system.cpu.dtb_walker_cache.tags.data_accesses            0                       # Number of data accesses
system.cpu.dcache.pwrStateResidencyTicks::UNDEFINED 560764034368000                       # Cumulative time (in ticks) in various power states
system.cpu.dcache.demand_hits::.cpu.data            3                       # number of demand (read+write) hits
system.cpu.dcache.demand_hits::.switch_cpus.data     37035345                       # number of demand (read+write) hits
system.cpu.dcache.demand_hits::total         37035348                       # number of demand (read+write) hits
system.cpu.dcache.overall_hits::.cpu.data            3                       # number of overall hits
system.cpu.dcache.overall_hits::.switch_cpus.data     37093963                       # number of overall hits
system.cpu.dcache.overall_hits::total        37093966                       # number of overall hits
system.cpu.dcache.demand_misses::.cpu.data            3                       # number of demand (read+write) misses
system.cpu.dcache.demand_misses::.switch_cpus.data       659418                       # number of demand (read+write) misses
system.cpu.dcache.demand_misses::total         659421                       # number of demand (read+write) misses
system.cpu.dcache.overall_misses::.cpu.data            3                       # number of overall misses
system.cpu.dcache.overall_misses::.switch_cpus.data       674372                       # number of overall misses
system.cpu.dcache.overall_misses::total        674375                       # number of overall misses
system.cpu.dcache.demand_miss_latency::.switch_cpus.data  52008309936                       # number of demand (read+write) miss cycles
system.cpu.dcache.demand_miss_latency::total  52008309936                       # number of demand (read+write) miss cycles
system.cpu.dcache.overall_miss_latency::.switch_cpus.data  52008309936                       # number of overall miss cycles
system.cpu.dcache.overall_miss_latency::total  52008309936                       # number of overall miss cycles
system.cpu.dcache.demand_accesses::.cpu.data            6                       # number of demand (read+write) accesses
system.cpu.dcache.demand_accesses::.switch_cpus.data     37694763                       # number of demand (read+write) accesses
system.cpu.dcache.demand_accesses::total     37694769                       # number of demand (read+write) accesses
system.cpu.dcache.overall_accesses::.cpu.data            6                       # number of overall (read+write) accesses
system.cpu.dcache.overall_accesses::.switch_cpus.data     37768335                       # number of overall (read+write) accesses
system.cpu.dcache.overall_accesses::total     37768341                       # number of overall (read+write) accesses
system.cpu.dcache.demand_miss_rate::.cpu.data     0.500000                       # miss rate for demand accesses
system.cpu.dcache.demand_miss_rate::.switch_cpus.data     0.017494                       # miss rate for demand accesses
system.cpu.dcache.demand_miss_rate::total     0.017494                       # miss rate for demand accesses
system.cpu.dcache.overall_miss_rate::.cpu.data     0.500000                       # miss rate for overall accesses
system.cpu.dcache.overall_miss_rate::.switch_cpus.data     0.017855                       # miss rate for overall accesses
system.cpu.dcache.overall_miss_rate::total     0.017856                       # miss rate for overall accesses
system.cpu.dcache.demand_avg_miss_latency::.switch_cpus.data 78870.018616                       # average overall miss latency
system.cpu.dcache.demand_avg_miss_latency::total 78869.659802                       # average overall miss latency
system.cpu.dcache.overall_avg_miss_latency::.switch_cpus.data 77121.099239                       # average overall miss latency
system.cpu.dcache.overall_avg_miss_latency::total 77120.756161                       # average overall miss latency
system.cpu.dcache.blocked_cycles::no_mshrs      7667274                       # number of cycles access was blocked
system.cpu.dcache.blocked_cycles::no_targets          621                       # number of cycles access was blocked
system.cpu.dcache.blocked::no_mshrs            124318                       # number of cycles access was blocked
system.cpu.dcache.blocked::no_targets               2                       # number of cycles access was blocked
system.cpu.dcache.avg_blocked_cycles::no_mshrs    61.674689                       # average number of cycles each access was blocked
system.cpu.dcache.avg_blocked_cycles::no_targets   310.500000                       # average number of cycles each access was blocked
system.cpu.dcache.writebacks::.writebacks       172226                       # number of writebacks
system.cpu.dcache.writebacks::total            172226                       # number of writebacks
system.cpu.dcache.demand_mshr_hits::.switch_cpus.data       216015                       # number of demand (read+write) MSHR hits
system.cpu.dcache.demand_mshr_hits::total       216015                       # number of demand (read+write) MSHR hits
system.cpu.dcache.overall_mshr_hits::.switch_cpus.data       216015                       # number of overall MSHR hits
system.cpu.dcache.overall_mshr_hits::total       216015                       # number of overall MSHR hits
system.cpu.dcache.demand_mshr_misses::.switch_cpus.data       443403                       # number of demand (read+write) MSHR misses
system.cpu.dcache.demand_mshr_misses::total       443403                       # number of demand (read+write) MSHR misses
system.cpu.dcache.overall_mshr_misses::.switch_cpus.data       448843                       # number of overall MSHR misses
system.cpu.dcache.overall_mshr_misses::total       448843                       # number of overall MSHR misses
system.cpu.dcache.demand_mshr_miss_latency::.switch_cpus.data  36007051936                       # number of demand (read+write) MSHR miss cycles
system.cpu.dcache.demand_mshr_miss_latency::total  36007051936                       # number of demand (read+write) MSHR miss cycles
system.cpu.dcache.overall_mshr_miss_latency::.switch_cpus.data  36478827936                       # number of overall MSHR miss cycles
system.cpu.dcache.overall_mshr_miss_latency::total  36478827936                       # number of overall MSHR miss cycles
system.cpu.dcache.demand_mshr_miss_rate::.switch_cpus.data     0.011763                       # mshr miss rate for demand accesses
system.cpu.dcache.demand_mshr_miss_rate::total     0.011763                       # mshr miss rate for demand accesses
system.cpu.dcache.overall_mshr_miss_rate::.switch_cpus.data     0.011884                       # mshr miss rate for overall accesses
system.cpu.dcache.overall_mshr_miss_rate::total     0.011884                       # mshr miss rate for overall accesses
system.cpu.dcache.demand_avg_mshr_miss_latency::.switch_cpus.data 81206.153174                       # average overall mshr miss latency
system.cpu.dcache.demand_avg_mshr_miss_latency::total 81206.153174                       # average overall mshr miss latency
system.cpu.dcache.overall_avg_mshr_miss_latency::.switch_cpus.data 81273.024055                       # average overall mshr miss latency
system.cpu.dcache.overall_avg_mshr_miss_latency::total 81273.024055                       # average overall mshr miss latency
system.cpu.dcache.replacements                 447822                       # number of replacements
system.cpu.dcache.ReadReq_hits::.cpu.data            1                       # number of ReadReq hits
system.cpu.dcache.ReadReq_hits::.switch_cpus.data     28180481                       # number of ReadReq hits
system.cpu.dcache.ReadReq_hits::total        28180482                       # number of ReadReq hits
system.cpu.dcache.ReadReq_misses::.cpu.data            1                       # number of ReadReq misses
system.cpu.dcache.ReadReq_misses::.switch_cpus.data       531565                       # number of ReadReq misses
system.cpu.dcache.ReadReq_misses::total        531566                       # number of ReadReq misses
system.cpu.dcache.ReadReq_miss_latency::.switch_cpus.data  41986124500                       # number of ReadReq miss cycles
system.cpu.dcache.ReadReq_miss_latency::total  41986124500                       # number of ReadReq miss cycles
system.cpu.dcache.ReadReq_accesses::.cpu.data            2                       # number of ReadReq accesses(hits+misses)
system.cpu.dcache.ReadReq_accesses::.switch_cpus.data     28712046                       # number of ReadReq accesses(hits+misses)
system.cpu.dcache.ReadReq_accesses::total     28712048                       # number of ReadReq accesses(hits+misses)
system.cpu.dcache.ReadReq_miss_rate::.cpu.data     0.500000                       # miss rate for ReadReq accesses
system.cpu.dcache.ReadReq_miss_rate::.switch_cpus.data     0.018514                       # miss rate for ReadReq accesses
system.cpu.dcache.ReadReq_miss_rate::total     0.018514                       # miss rate for ReadReq accesses
system.cpu.dcache.ReadReq_avg_miss_latency::.switch_cpus.data 78985.870966                       # average ReadReq miss latency
system.cpu.dcache.ReadReq_avg_miss_latency::total 78985.722375                       # average ReadReq miss latency
system.cpu.dcache.ReadReq_mshr_hits::.switch_cpus.data       215906                       # number of ReadReq MSHR hits
system.cpu.dcache.ReadReq_mshr_hits::total       215906                       # number of ReadReq MSHR hits
system.cpu.dcache.ReadReq_mshr_misses::.switch_cpus.data       315659                       # number of ReadReq MSHR misses
system.cpu.dcache.ReadReq_mshr_misses::total       315659                       # number of ReadReq MSHR misses
system.cpu.dcache.ReadReq_mshr_miss_latency::.switch_cpus.data  26114229500                       # number of ReadReq MSHR miss cycles
system.cpu.dcache.ReadReq_mshr_miss_latency::total  26114229500                       # number of ReadReq MSHR miss cycles
system.cpu.dcache.ReadReq_mshr_miss_rate::.switch_cpus.data     0.010994                       # mshr miss rate for ReadReq accesses
system.cpu.dcache.ReadReq_mshr_miss_rate::total     0.010994                       # mshr miss rate for ReadReq accesses
system.cpu.dcache.ReadReq_avg_mshr_miss_latency::.switch_cpus.data 82729.241048                       # average ReadReq mshr miss latency
system.cpu.dcache.ReadReq_avg_mshr_miss_latency::total 82729.241048                       # average ReadReq mshr miss latency
system.cpu.dcache.WriteReq_hits::.cpu.data            2                       # number of WriteReq hits
system.cpu.dcache.WriteReq_hits::.switch_cpus.data      8854864                       # number of WriteReq hits
system.cpu.dcache.WriteReq_hits::total        8854866                       # number of WriteReq hits
system.cpu.dcache.WriteReq_misses::.cpu.data            2                       # number of WriteReq misses
system.cpu.dcache.WriteReq_misses::.switch_cpus.data       127853                       # number of WriteReq misses
system.cpu.dcache.WriteReq_misses::total       127855                       # number of WriteReq misses
system.cpu.dcache.WriteReq_miss_latency::.switch_cpus.data  10022185436                       # number of WriteReq miss cycles
system.cpu.dcache.WriteReq_miss_latency::total  10022185436                       # number of WriteReq miss cycles
system.cpu.dcache.WriteReq_accesses::.cpu.data            4                       # number of WriteReq accesses(hits+misses)
system.cpu.dcache.WriteReq_accesses::.switch_cpus.data      8982717                       # number of WriteReq accesses(hits+misses)
system.cpu.dcache.WriteReq_accesses::total      8982721                       # number of WriteReq accesses(hits+misses)
system.cpu.dcache.WriteReq_miss_rate::.cpu.data     0.500000                       # miss rate for WriteReq accesses
system.cpu.dcache.WriteReq_miss_rate::.switch_cpus.data     0.014233                       # miss rate for WriteReq accesses
system.cpu.dcache.WriteReq_miss_rate::total     0.014233                       # miss rate for WriteReq accesses
system.cpu.dcache.WriteReq_avg_miss_latency::.switch_cpus.data 78388.347837                       # average WriteReq miss latency
system.cpu.dcache.WriteReq_avg_miss_latency::total 78387.121630                       # average WriteReq miss latency
system.cpu.dcache.WriteReq_mshr_hits::.switch_cpus.data          109                       # number of WriteReq MSHR hits
system.cpu.dcache.WriteReq_mshr_hits::total          109                       # number of WriteReq MSHR hits
system.cpu.dcache.WriteReq_mshr_misses::.switch_cpus.data       127744                       # number of WriteReq MSHR misses
system.cpu.dcache.WriteReq_mshr_misses::total       127744                       # number of WriteReq MSHR misses
system.cpu.dcache.WriteReq_mshr_miss_latency::.switch_cpus.data   9892822436                       # number of WriteReq MSHR miss cycles
system.cpu.dcache.WriteReq_mshr_miss_latency::total   9892822436                       # number of WriteReq MSHR miss cycles
system.cpu.dcache.WriteReq_mshr_miss_rate::.switch_cpus.data     0.014221                       # mshr miss rate for WriteReq accesses
system.cpu.dcache.WriteReq_mshr_miss_rate::total     0.014221                       # mshr miss rate for WriteReq accesses
system.cpu.dcache.WriteReq_avg_mshr_miss_latency::.switch_cpus.data 77442.560402                       # average WriteReq mshr miss latency
system.cpu.dcache.WriteReq_avg_mshr_miss_latency::total 77442.560402                       # average WriteReq mshr miss latency
system.cpu.dcache.SoftPFReq_hits::.switch_cpus.data        58618                       # number of SoftPFReq hits
system.cpu.dcache.SoftPFReq_hits::total         58618                       # number of SoftPFReq hits
system.cpu.dcache.SoftPFReq_misses::.switch_cpus.data        14954                       # number of SoftPFReq misses
system.cpu.dcache.SoftPFReq_misses::total        14954                       # number of SoftPFReq misses
system.cpu.dcache.SoftPFReq_accesses::.switch_cpus.data        73572                       # number of SoftPFReq accesses(hits+misses)
system.cpu.dcache.SoftPFReq_accesses::total        73572                       # number of SoftPFReq accesses(hits+misses)
system.cpu.dcache.SoftPFReq_miss_rate::.switch_cpus.data     0.203257                       # miss rate for SoftPFReq accesses
system.cpu.dcache.SoftPFReq_miss_rate::total     0.203257                       # miss rate for SoftPFReq accesses
system.cpu.dcache.SoftPFReq_mshr_misses::.switch_cpus.data         5440                       # number of SoftPFReq MSHR misses
system.cpu.dcache.SoftPFReq_mshr_misses::total         5440                       # number of SoftPFReq MSHR misses
system.cpu.dcache.SoftPFReq_mshr_miss_latency::.switch_cpus.data    471776000                       # number of SoftPFReq MSHR miss cycles
system.cpu.dcache.SoftPFReq_mshr_miss_latency::total    471776000                       # number of SoftPFReq MSHR miss cycles
system.cpu.dcache.SoftPFReq_mshr_miss_rate::.switch_cpus.data     0.073941                       # mshr miss rate for SoftPFReq accesses
system.cpu.dcache.SoftPFReq_mshr_miss_rate::total     0.073941                       # mshr miss rate for SoftPFReq accesses
system.cpu.dcache.SoftPFReq_avg_mshr_miss_latency::.switch_cpus.data 86723.529412                       # average SoftPFReq mshr miss latency
system.cpu.dcache.SoftPFReq_avg_mshr_miss_latency::total 86723.529412                       # average SoftPFReq mshr miss latency
system.cpu.dcache.tags.pwrStateResidencyTicks::UNDEFINED 560764034368000                       # Cumulative time (in ticks) in various power states
system.cpu.dcache.tags.tagsinuse             0.054676                       # Cycle average of tags in use
system.cpu.dcache.tags.total_refs            37542812                       # Total number of references to valid blocks.
system.cpu.dcache.tags.sampled_refs            448846                       # Sample count of references to valid blocks.
system.cpu.dcache.tags.avg_refs             83.642969                       # Average number of references to valid blocks.
system.cpu.dcache.tags.warmup_cycle      560734027452500                       # Cycle when the warmup percentage was hit.
system.cpu.dcache.tags.occ_blocks::.cpu.data     0.000002                       # Average occupied blocks per requestor
system.cpu.dcache.tags.occ_blocks::.switch_cpus.data     0.054674                       # Average occupied blocks per requestor
system.cpu.dcache.tags.occ_percent::.cpu.data     0.000000                       # Average percentage of cache occupancy
system.cpu.dcache.tags.occ_percent::.switch_cpus.data     0.000053                       # Average percentage of cache occupancy
system.cpu.dcache.tags.occ_percent::total     0.000053                       # Average percentage of cache occupancy
system.cpu.dcache.tags.occ_task_id_blocks::1024         1024                       # Occupied blocks per task id
system.cpu.dcache.tags.age_task_id_blocks_1024::0          129                       # Occupied blocks per task id
system.cpu.dcache.tags.age_task_id_blocks_1024::1          546                       # Occupied blocks per task id
system.cpu.dcache.tags.age_task_id_blocks_1024::2          348                       # Occupied blocks per task id
system.cpu.dcache.tags.age_task_id_blocks_1024::3            1                       # Occupied blocks per task id
system.cpu.dcache.tags.occ_task_id_percent::1024            1                       # Percentage of cache occupancy per task id
system.cpu.dcache.tags.tag_accesses          75985528                       # Number of tag accesses
system.cpu.dcache.tags.data_accesses         75985528                       # Number of data accesses

---------- End Simulation Statistics   ----------
