
---------- Begin Simulation Statistics ----------
final_tick                               190179729972000                       # Number of ticks from beginning of simulation (restored from checkpoints and never reset)
host_inst_rate                                  34051                       # Simulator instruction rate (inst/s)
host_mem_usage                                 828152                       # Number of bytes of host memory used
host_op_rate                                    59807                       # Simulator op (including micro ops) rate (op/s)
host_seconds                                   293.68                       # Real time elapsed on the host
host_tick_rate                               99412642                       # Simulator tick rate (ticks/s)
sim_freq                                 1000000000000                       # Frequency of simulated ticks
sim_insts                                    10000011                       # Number of instructions simulated
sim_ops                                      17564244                       # Number of ops (including micro ops) simulated
sim_seconds                                  0.029196                       # Number of seconds simulated
sim_ticks                                 29195703250                       # Number of ticks simulated
system.cpu.Branches                                 4                       # Number of branches fetched
system.cpu.committedInsts                          10                       # Number of instructions committed
system.cpu.committedOps                            20                       # Number of ops (including micro ops) committed
system.cpu.dtb.rdAccesses                           2                       # TLB accesses on read requests
system.cpu.dtb.rdMisses                             1                       # TLB misses on read requests
system.cpu.dtb.wrAccesses                           0                       # TLB accesses on write requests
system.cpu.dtb.wrMisses                             0                       # TLB misses on write requests
system.cpu.idle_fraction                            0                       # Percentage of idle cycles
system.cpu.itb.rdAccesses                           0                       # TLB accesses on read requests
system.cpu.itb.rdMisses                             0                       # TLB misses on read requests
system.cpu.itb.wrAccesses                          12                       # TLB accesses on write requests
system.cpu.itb.wrMisses                             0                       # TLB misses on write requests
system.cpu.not_idle_fraction                        1                       # Percentage of non-idle cycles
system.cpu.numCycles                               22                       # number of cpu cycles simulated
system.cpu.numWorkItemsCompleted                    0                       # number of work items this cpu completed
system.cpu.numWorkItemsStarted                      0                       # number of work items this cpu started
system.cpu.num_busy_cycles                         22                       # Number of busy cycles
system.cpu.num_cc_register_reads                   21                       # number of times the CC registers were read
system.cpu.num_cc_register_writes                  10                       # number of times the CC registers were written
system.cpu.num_conditional_control_insts            4                       # number of instructions that are conditional controls
system.cpu.num_fp_alu_accesses                      0                       # Number of float alu accesses
system.cpu.num_fp_insts                             0                       # number of float instructions
system.cpu.num_fp_register_reads                    0                       # number of times the floating registers were read
system.cpu.num_fp_register_writes                   0                       # number of times the floating registers were written
system.cpu.num_func_calls                           0                       # number of times a function call or return occured
system.cpu.num_idle_cycles                          0                       # Number of idle cycles
system.cpu.num_int_alu_accesses                    20                       # Number of integer alu accesses
system.cpu.num_int_insts                           20                       # number of integer instructions
system.cpu.num_int_register_reads                  32                       # number of times the integer registers were read
system.cpu.num_int_register_writes                 16                       # number of times the integer registers were written
system.cpu.num_load_insts                           2                       # Number of load instructions
system.cpu.num_mem_refs                             2                       # number of memory refs
system.cpu.num_store_insts                          0                       # Number of store instructions
system.cpu.num_vec_alu_accesses                     0                       # Number of vector alu accesses
system.cpu.num_vec_insts                            0                       # number of vector instructions
system.cpu.num_vec_register_reads                   0                       # number of times the vector registers were read
system.cpu.num_vec_register_writes                  0                       # number of times the vector registers were written
system.cpu.op_class::No_OpClass                     0      0.00%      0.00% # Class of executed instruction
system.cpu.op_class::IntAlu                        18     90.00%     90.00% # Class of executed instruction
system.cpu.op_class::IntMult                        0      0.00%     90.00% # Class of executed instruction
system.cpu.op_class::IntDiv                         0      0.00%     90.00% # Class of executed instruction
system.cpu.op_class::FloatAdd                       0      0.00%     90.00% # Class of executed instruction
system.cpu.op_class::FloatCmp                       0      0.00%     90.00% # Class of executed instruction
system.cpu.op_class::FloatCvt                       0      0.00%     90.00% # Class of executed instruction
system.cpu.op_class::FloatMult                      0      0.00%     90.00% # Class of executed instruction
system.cpu.op_class::FloatMultAcc                   0      0.00%     90.00% # Class of executed instruction
system.cpu.op_class::FloatDiv                       0      0.00%     90.00% # Class of executed instruction
system.cpu.op_class::FloatMisc                      0      0.00%     90.00% # Class of executed instruction
system.cpu.op_class::FloatSqrt                      0      0.00%     90.00% # Class of executed instruction
system.cpu.op_class::SimdAdd                        0      0.00%     90.00% # Class of executed instruction
system.cpu.op_class::SimdAddAcc                     0      0.00%     90.00% # Class of executed instruction
system.cpu.op_class::SimdAlu                        0      0.00%     90.00% # Class of executed instruction
system.cpu.op_class::SimdCmp                        0      0.00%     90.00% # Class of executed instruction
system.cpu.op_class::SimdCvt                        0      0.00%     90.00% # Class of executed instruction
system.cpu.op_class::SimdMisc                       0      0.00%     90.00% # Class of executed instruction
system.cpu.op_class::SimdMult                       0      0.00%     90.00% # Class of executed instruction
system.cpu.op_class::SimdMultAcc                    0      0.00%     90.00% # Class of executed instruction
system.cpu.op_class::SimdShift                      0      0.00%     90.00% # Class of executed instruction
system.cpu.op_class::SimdShiftAcc                   0      0.00%     90.00% # Class of executed instruction
system.cpu.op_class::SimdDiv                        0      0.00%     90.00% # Class of executed instruction
system.cpu.op_class::SimdSqrt                       0      0.00%     90.00% # Class of executed instruction
system.cpu.op_class::SimdFloatAdd                   0      0.00%     90.00% # Class of executed instruction
system.cpu.op_class::SimdFloatAlu                   0      0.00%     90.00% # Class of executed instruction
system.cpu.op_class::SimdFloatCmp                   0      0.00%     90.00% # Class of executed instruction
system.cpu.op_class::SimdFloatCvt                   0      0.00%     90.00% # Class of executed instruction
system.cpu.op_class::SimdFloatDiv                   0      0.00%     90.00% # Class of executed instruction
system.cpu.op_class::SimdFloatMisc                  0      0.00%     90.00% # Class of executed instruction
system.cpu.op_class::SimdFloatMult                  0      0.00%     90.00% # Class of executed instruction
system.cpu.op_class::SimdFloatMultAcc               0      0.00%     90.00% # Class of executed instruction
system.cpu.op_class::SimdFloatSqrt                  0      0.00%     90.00% # Class of executed instruction
system.cpu.op_class::SimdReduceAdd                  0      0.00%     90.00% # Class of executed instruction
system.cpu.op_class::SimdReduceAlu                  0      0.00%     90.00% # Class of executed instruction
system.cpu.op_class::SimdReduceCmp                  0      0.00%     90.00% # Class of executed instruction
system.cpu.op_class::SimdFloatReduceAdd             0      0.00%     90.00% # Class of executed instruction
system.cpu.op_class::SimdFloatReduceCmp             0      0.00%     90.00% # Class of executed instruction
system.cpu.op_class::SimdAes                        0      0.00%     90.00% # Class of executed instruction
system.cpu.op_class::SimdAesMix                     0      0.00%     90.00% # Class of executed instruction
system.cpu.op_class::SimdSha1Hash                   0      0.00%     90.00% # Class of executed instruction
system.cpu.op_class::SimdSha1Hash2                  0      0.00%     90.00% # Class of executed instruction
system.cpu.op_class::SimdSha256Hash                 0      0.00%     90.00% # Class of executed instruction
system.cpu.op_class::SimdSha256Hash2                0      0.00%     90.00% # Class of executed instruction
system.cpu.op_class::SimdShaSigma2                  0      0.00%     90.00% # Class of executed instruction
system.cpu.op_class::SimdShaSigma3                  0      0.00%     90.00% # Class of executed instruction
system.cpu.op_class::SimdPredAlu                    0      0.00%     90.00% # Class of executed instruction
system.cpu.op_class::MemRead                        2     10.00%    100.00% # Class of executed instruction
system.cpu.op_class::MemWrite                       0      0.00%    100.00% # Class of executed instruction
system.cpu.op_class::FloatMemRead                   0      0.00%    100.00% # Class of executed instruction
system.cpu.op_class::FloatMemWrite                  0      0.00%    100.00% # Class of executed instruction
system.cpu.op_class::IprAccess                      0      0.00%    100.00% # Class of executed instruction
system.cpu.op_class::InstPrefetch                   0      0.00%    100.00% # Class of executed instruction
system.cpu.op_class::total                         20                       # Class of executed instruction
system.cpu.workload.numSyscalls                     0                       # Number of system calls
system.l2.prefetcher.num_hwpf_issued               24                       # number of hwpf issued
system.l2.prefetcher.pfBufferHit                    0                       # number of redundant prefetches already in prefetch queue
system.l2.prefetcher.pfIdentified                  24                       # number of prefetch candidates identified
system.l2.prefetcher.pfInCache                      0                       # number of redundant prefetches already in cache/mshr dropped
system.l2.prefetcher.pfRemovedFull                  0                       # number of prefetches dropped due to prefetch queue size
system.l2.prefetcher.pfSpanPage               1827376                       # number of prefetches that crossed the page
system.membus.snoop_filter.hit_multi_requests            0                       # Number of requests hitting in the snoop filter with multiple (>1) holders of the requested data.
system.membus.snoop_filter.hit_multi_snoops            0                       # Number of snoops hitting in the snoop filter with multiple (>1) holders of the requested data.
system.membus.snoop_filter.hit_single_requests       854489                       # Number of requests hitting in the snoop filter with a single holder of the requested data.
system.membus.snoop_filter.hit_single_snoops            0                       # Number of snoops hitting in the snoop filter with a single holder of the requested data.
system.membus.snoop_filter.tot_requests       1713223                       # Total number of requests made to the snoop filter.
system.membus.snoop_filter.tot_snoops               0                       # Total number of snoops made to the snoop filter.
system.switch_cpus.branchPred.BTBCorrect            0                       # Number of correct BTB predictions (this stat may not work properly.
system.switch_cpus.branchPred.BTBHitPct      0.000000                       # BTB Hit Percentage
system.switch_cpus.branchPred.BTBHits               0                       # Number of BTB hits
system.switch_cpus.branchPred.BTBLookups      3054212                       # Number of BTB lookups
system.switch_cpus.branchPred.RASInCorrect            1                       # Number of incorrect RAS predictions.
system.switch_cpus.branchPred.condIncorrect       171600                       # Number of conditional branches incorrect
system.switch_cpus.branchPred.condPredicted      4172723                       # Number of conditional branches predicted
system.switch_cpus.branchPred.indirectHits      1879177                       # Number of indirect target hits.
system.switch_cpus.branchPred.indirectLookups      3054212                       # Number of indirect predictor lookups.
system.switch_cpus.branchPred.indirectMisses      1175035                       # Number of indirect misses.
system.switch_cpus.branchPred.lookups         4231691                       # Number of BP lookups
system.switch_cpus.branchPred.usedRAS           31039                       # Number of times the RAS was used to get a target.
system.switch_cpus.branchPredindirectMispredicted       113915                       # Number of mispredicted indirect branches.
system.switch_cpus.cc_regfile_reads          15614649                       # number of cc regfile reads
system.switch_cpus.cc_regfile_writes          9192157                       # number of cc regfile writes
system.switch_cpus.commit.amos                      0                       # Number of atomic instructions committed
system.switch_cpus.commit.branchMispredicts       171624                       # The number of times a branch was mispredicted
system.switch_cpus.commit.branches            2713377                       # Number of branches committed
system.switch_cpus.commit.bw_lim_events       1374731                       # number cycles where commit BW limit reached
system.switch_cpus.commit.commitSquashedInsts      6368886                       # The number of squashed insts skipped by commit
system.switch_cpus.commit.committedInsts     10000001                       # Number of instructions committed
system.switch_cpus.commit.committedOps       17564224                       # Number of ops (including micro ops) committed
system.switch_cpus.commit.committed_per_cycle::samples     57397872                       # Number of insts commited each cycle
system.switch_cpus.commit.committed_per_cycle::mean     0.306008                       # Number of insts commited each cycle
system.switch_cpus.commit.committed_per_cycle::stdev     1.340062                       # Number of insts commited each cycle
system.switch_cpus.commit.committed_per_cycle::underflows            0      0.00%      0.00% # Number of insts commited each cycle
system.switch_cpus.commit.committed_per_cycle::0     53184727     92.66%     92.66% # Number of insts commited each cycle
system.switch_cpus.commit.committed_per_cycle::1      1125608      1.96%     94.62% # Number of insts commited each cycle
system.switch_cpus.commit.committed_per_cycle::2       401925      0.70%     95.32% # Number of insts commited each cycle
system.switch_cpus.commit.committed_per_cycle::3       943242      1.64%     96.96% # Number of insts commited each cycle
system.switch_cpus.commit.committed_per_cycle::4       159350      0.28%     97.24% # Number of insts commited each cycle
system.switch_cpus.commit.committed_per_cycle::5       116987      0.20%     97.45% # Number of insts commited each cycle
system.switch_cpus.commit.committed_per_cycle::6        54257      0.09%     97.54% # Number of insts commited each cycle
system.switch_cpus.commit.committed_per_cycle::7        37045      0.06%     97.60% # Number of insts commited each cycle
system.switch_cpus.commit.committed_per_cycle::8      1374731      2.40%    100.00% # Number of insts commited each cycle
system.switch_cpus.commit.committed_per_cycle::overflows            0      0.00%    100.00% # Number of insts commited each cycle
system.switch_cpus.commit.committed_per_cycle::min_value            0                       # Number of insts commited each cycle
system.switch_cpus.commit.committed_per_cycle::max_value            8                       # Number of insts commited each cycle
system.switch_cpus.commit.committed_per_cycle::total     57397872                       # Number of insts commited each cycle
system.switch_cpus.commit.fp_insts                  0                       # Number of committed floating point instructions.
system.switch_cpus.commit.function_calls         2082                       # Number of function calls committed.
system.switch_cpus.commit.int_insts          17541011                       # Number of committed integer instructions.
system.switch_cpus.commit.loads               3923977                       # Number of loads committed
system.switch_cpus.commit.membars                   0                       # Number of memory barriers committed
system.switch_cpus.commit.op_class_0::No_OpClass        20038      0.11%      0.11% # Class of committed instruction
system.switch_cpus.commit.op_class_0::IntAlu     13353408     76.03%     76.14% # Class of committed instruction
system.switch_cpus.commit.op_class_0::IntMult          330      0.00%     76.14% # Class of committed instruction
system.switch_cpus.commit.op_class_0::IntDiv            0      0.00%     76.14% # Class of committed instruction
system.switch_cpus.commit.op_class_0::FloatAdd            0      0.00%     76.14% # Class of committed instruction
system.switch_cpus.commit.op_class_0::FloatCmp            0      0.00%     76.14% # Class of committed instruction
system.switch_cpus.commit.op_class_0::FloatCvt            0      0.00%     76.14% # Class of committed instruction
system.switch_cpus.commit.op_class_0::FloatMult            0      0.00%     76.14% # Class of committed instruction
system.switch_cpus.commit.op_class_0::FloatMultAcc            0      0.00%     76.14% # Class of committed instruction
system.switch_cpus.commit.op_class_0::FloatDiv            0      0.00%     76.14% # Class of committed instruction
system.switch_cpus.commit.op_class_0::FloatMisc            0      0.00%     76.14% # Class of committed instruction
system.switch_cpus.commit.op_class_0::FloatSqrt            0      0.00%     76.14% # Class of committed instruction
system.switch_cpus.commit.op_class_0::SimdAdd            0      0.00%     76.14% # Class of committed instruction
system.switch_cpus.commit.op_class_0::SimdAddAcc            0      0.00%     76.14% # Class of committed instruction
system.switch_cpus.commit.op_class_0::SimdAlu            0      0.00%     76.14% # Class of committed instruction
system.switch_cpus.commit.op_class_0::SimdCmp            0      0.00%     76.14% # Class of committed instruction
system.switch_cpus.commit.op_class_0::SimdCvt            0      0.00%     76.14% # Class of committed instruction
system.switch_cpus.commit.op_class_0::SimdMisc            0      0.00%     76.14% # Class of committed instruction
system.switch_cpus.commit.op_class_0::SimdMult            0      0.00%     76.14% # Class of committed instruction
system.switch_cpus.commit.op_class_0::SimdMultAcc            0      0.00%     76.14% # Class of committed instruction
system.switch_cpus.commit.op_class_0::SimdShift            0      0.00%     76.14% # Class of committed instruction
system.switch_cpus.commit.op_class_0::SimdShiftAcc            0      0.00%     76.14% # Class of committed instruction
system.switch_cpus.commit.op_class_0::SimdDiv            0      0.00%     76.14% # Class of committed instruction
system.switch_cpus.commit.op_class_0::SimdSqrt            0      0.00%     76.14% # Class of committed instruction
system.switch_cpus.commit.op_class_0::SimdFloatAdd            0      0.00%     76.14% # Class of committed instruction
system.switch_cpus.commit.op_class_0::SimdFloatAlu            0      0.00%     76.14% # Class of committed instruction
system.switch_cpus.commit.op_class_0::SimdFloatCmp            0      0.00%     76.14% # Class of committed instruction
system.switch_cpus.commit.op_class_0::SimdFloatCvt            0      0.00%     76.14% # Class of committed instruction
system.switch_cpus.commit.op_class_0::SimdFloatDiv            0      0.00%     76.14% # Class of committed instruction
system.switch_cpus.commit.op_class_0::SimdFloatMisc            0      0.00%     76.14% # Class of committed instruction
system.switch_cpus.commit.op_class_0::SimdFloatMult            0      0.00%     76.14% # Class of committed instruction
system.switch_cpus.commit.op_class_0::SimdFloatMultAcc            0      0.00%     76.14% # Class of committed instruction
system.switch_cpus.commit.op_class_0::SimdFloatSqrt            0      0.00%     76.14% # Class of committed instruction
system.switch_cpus.commit.op_class_0::SimdReduceAdd            0      0.00%     76.14% # Class of committed instruction
system.switch_cpus.commit.op_class_0::SimdReduceAlu            0      0.00%     76.14% # Class of committed instruction
system.switch_cpus.commit.op_class_0::SimdReduceCmp            0      0.00%     76.14% # Class of committed instruction
system.switch_cpus.commit.op_class_0::SimdFloatReduceAdd            0      0.00%     76.14% # Class of committed instruction
system.switch_cpus.commit.op_class_0::SimdFloatReduceCmp            0      0.00%     76.14% # Class of committed instruction
system.switch_cpus.commit.op_class_0::SimdAes            0      0.00%     76.14% # Class of committed instruction
system.switch_cpus.commit.op_class_0::SimdAesMix            0      0.00%     76.14% # Class of committed instruction
system.switch_cpus.commit.op_class_0::SimdSha1Hash            0      0.00%     76.14% # Class of committed instruction
system.switch_cpus.commit.op_class_0::SimdSha1Hash2            0      0.00%     76.14% # Class of committed instruction
system.switch_cpus.commit.op_class_0::SimdSha256Hash            0      0.00%     76.14% # Class of committed instruction
system.switch_cpus.commit.op_class_0::SimdSha256Hash2            0      0.00%     76.14% # Class of committed instruction
system.switch_cpus.commit.op_class_0::SimdShaSigma2            0      0.00%     76.14% # Class of committed instruction
system.switch_cpus.commit.op_class_0::SimdShaSigma3            0      0.00%     76.14% # Class of committed instruction
system.switch_cpus.commit.op_class_0::SimdPredAlu            0      0.00%     76.14% # Class of committed instruction
system.switch_cpus.commit.op_class_0::MemRead      3923977     22.34%     98.48% # Class of committed instruction
system.switch_cpus.commit.op_class_0::MemWrite       266471      1.52%    100.00% # Class of committed instruction
system.switch_cpus.commit.op_class_0::FloatMemRead            0      0.00%    100.00% # Class of committed instruction
system.switch_cpus.commit.op_class_0::FloatMemWrite            0      0.00%    100.00% # Class of committed instruction
system.switch_cpus.commit.op_class_0::IprAccess            0      0.00%    100.00% # Class of committed instruction
system.switch_cpus.commit.op_class_0::InstPrefetch            0      0.00%    100.00% # Class of committed instruction
system.switch_cpus.commit.op_class_0::total     17564224                       # Class of committed instruction
system.switch_cpus.commit.refs                4190448                       # Number of memory references committed
system.switch_cpus.commit.swp_count                 0                       # Number of s/w prefetches committed
system.switch_cpus.commit.vec_insts                 0                       # Number of committed Vector instructions.
system.switch_cpus.committedInsts            10000001                       # Number of Instructions Simulated
system.switch_cpus.committedOps              17564224                       # Number of Ops (including micro ops) Simulated
system.switch_cpus.cpi                       5.839138                       # CPI: Cycles Per Instruction
system.switch_cpus.cpi_total                 5.839138                       # CPI: Total CPI of All Threads
system.switch_cpus.decode.BlockedCycles      53478138                       # Number of cycles decode is blocked
system.switch_cpus.decode.DecodedInsts       26223844                       # Number of instructions handled by decode
system.switch_cpus.decode.IdleCycles          1200494                       # Number of cycles decode is idle
system.switch_cpus.decode.RunCycles           1979823                       # Number of cycles decode is running
system.switch_cpus.decode.SquashCycles         172126                       # Number of cycles decode is squashing
system.switch_cpus.decode.UnblockCycles       1556786                       # Number of cycles decode is unblocking
system.switch_cpus.dtb.rdAccesses             4571408                       # TLB accesses on read requests
system.switch_cpus.dtb.rdMisses               1391491                       # TLB misses on read requests
system.switch_cpus.dtb.wrAccesses              379171                       # TLB accesses on write requests
system.switch_cpus.dtb.wrMisses                  9721                       # TLB misses on write requests
system.switch_cpus.fetch.Branches             4231691                       # Number of branches that fetch encountered
system.switch_cpus.fetch.CacheLines            870832                       # Number of cache lines fetched
system.switch_cpus.fetch.Cycles              57249279                       # Number of cycles fetch has run and was not squashing or blocked
system.switch_cpus.fetch.IcacheSquashes         33737                       # Number of outstanding Icache misses that were squashed
system.switch_cpus.fetch.Insts               16481983                       # Number of instructions fetch has processed
system.switch_cpus.fetch.MiscStallCycles           24                       # Number of cycles fetch has spent waiting on interrupts, or bad addresses, or out of MSHRs
system.switch_cpus.fetch.PendingTrapStallCycles          217                       # Number of stall cycles due to pending traps
system.switch_cpus.fetch.SquashCycles          344252                       # Number of cycles fetch has spent squashing
system.switch_cpus.fetch.branchRate          0.072471                       # Number of branch fetches per cycle
system.switch_cpus.fetch.icacheStallCycles       965728                       # Number of cycles fetch is stalled on an Icache miss
system.switch_cpus.fetch.predictedBranches      1910216                       # Number of branches that fetch has predicted taken
system.switch_cpus.fetch.rate                0.282267                       # Number of inst fetches per cycle
system.switch_cpus.fetch.rateDist::samples     58387374                       # Number of instructions fetched each cycle (Total)
system.switch_cpus.fetch.rateDist::mean      0.491927                       # Number of instructions fetched each cycle (Total)
system.switch_cpus.fetch.rateDist::stdev     1.754549                       # Number of instructions fetched each cycle (Total)
system.switch_cpus.fetch.rateDist::underflows            0      0.00%      0.00% # Number of instructions fetched each cycle (Total)
system.switch_cpus.fetch.rateDist::0         53440596     91.53%     91.53% # Number of instructions fetched each cycle (Total)
system.switch_cpus.fetch.rateDist::1           293382      0.50%     92.03% # Number of instructions fetched each cycle (Total)
system.switch_cpus.fetch.rateDist::2           307132      0.53%     92.56% # Number of instructions fetched each cycle (Total)
system.switch_cpus.fetch.rateDist::3           328028      0.56%     93.12% # Number of instructions fetched each cycle (Total)
system.switch_cpus.fetch.rateDist::4           555024      0.95%     94.07% # Number of instructions fetched each cycle (Total)
system.switch_cpus.fetch.rateDist::5           807443      1.38%     95.45% # Number of instructions fetched each cycle (Total)
system.switch_cpus.fetch.rateDist::6           227472      0.39%     95.84% # Number of instructions fetched each cycle (Total)
system.switch_cpus.fetch.rateDist::7           217942      0.37%     96.21% # Number of instructions fetched each cycle (Total)
system.switch_cpus.fetch.rateDist::8          2210355      3.79%    100.00% # Number of instructions fetched each cycle (Total)
system.switch_cpus.fetch.rateDist::overflows            0      0.00%    100.00% # Number of instructions fetched each cycle (Total)
system.switch_cpus.fetch.rateDist::min_value            0                       # Number of instructions fetched each cycle (Total)
system.switch_cpus.fetch.rateDist::max_value            8                       # Number of instructions fetched each cycle (Total)
system.switch_cpus.fetch.rateDist::total     58387374                       # Number of instructions fetched each cycle (Total)
system.switch_cpus.fp_regfile_writes               56                       # number of floating regfile writes
system.switch_cpus.idleCycles                    4010                       # Total number of cycles that the CPU has spent unscheduled due to idling
system.switch_cpus.iew.branchMispredicts       219752                       # Number of branch mispredicts detected at execute
system.switch_cpus.iew.exec_branches          3089046                       # Number of branches executed
system.switch_cpus.iew.exec_nop                     0                       # number of nop insts executed
system.switch_cpus.iew.exec_rate             0.561656                       # Inst execution rate
system.switch_cpus.iew.exec_refs             16231220                       # number of memory reference insts executed
system.switch_cpus.iew.exec_stores             379159                       # Number of stores executed
system.switch_cpus.iew.exec_swp                     0                       # number of swp insts executed
system.switch_cpus.iew.iewBlockCycles        19263012                       # Number of cycles IEW is blocking
system.switch_cpus.iew.iewDispLoadInsts       5061755                       # Number of dispatched load instructions
system.switch_cpus.iew.iewDispNonSpecInsts            0                       # Number of dispatched non-speculative instructions
system.switch_cpus.iew.iewDispSquashedInsts        26602                       # Number of squashed instructions skipped by dispatch
system.switch_cpus.iew.iewDispStoreInsts       558702                       # Number of dispatched store instructions
system.switch_cpus.iew.iewDispatchedInsts     23926896                       # Number of instructions dispatched to IQ
system.switch_cpus.iew.iewExecLoadInsts      15852061                       # Number of load instructions executed
system.switch_cpus.iew.iewExecSquashedInsts       378090                       # Number of squashed instructions skipped in execute
system.switch_cpus.iew.iewExecutedInsts      32795870                       # Number of executed instructions
system.switch_cpus.iew.iewIQFullEvents         254948                       # Number of times the IQ has become full, causing a stall
system.switch_cpus.iew.iewIdleCycles                0                       # Number of cycles IEW is idle
system.switch_cpus.iew.iewLSQFullEvents       6115820                       # Number of times the LSQ has become full, causing a stall
system.switch_cpus.iew.iewSquashCycles         172126                       # Number of cycles IEW is squashing
system.switch_cpus.iew.iewUnblockCycles       6575838                       # Number of cycles IEW is unblocking
system.switch_cpus.iew.lsq.thread0.blockedLoads            0                       # Number of blocked loads due to partial load-store forwarding
system.switch_cpus.iew.lsq.thread0.cacheBlocked      1204756                       # Number of times an access to memory failed due to the cache being blocked
system.switch_cpus.iew.lsq.thread0.forwLoads        43003                       # Number of loads that had data forwarded from stores
system.switch_cpus.iew.lsq.thread0.ignoredResponses          427                       # Number of memory responses ignored because the instruction is squashed
system.switch_cpus.iew.lsq.thread0.invAddrLoads            0                       # Number of loads ignored due to an invalid address
system.switch_cpus.iew.lsq.thread0.invAddrSwpfs            0                       # Number of software prefetches ignored due to an invalid address
system.switch_cpus.iew.lsq.thread0.memOrderViolation         1044                       # Number of memory ordering violations
system.switch_cpus.iew.lsq.thread0.rescheduledLoads            0                       # Number of loads that were rescheduled
system.switch_cpus.iew.lsq.thread0.squashedLoads      1137748                       # Number of loads squashed
system.switch_cpus.iew.lsq.thread0.squashedStores       292231                       # Number of stores squashed
system.switch_cpus.iew.memOrderViolationEvents         1044                       # Number of memory order violations
system.switch_cpus.iew.predictedNotTakenIncorrect       178114                       # Number of branches that were predicted not taken incorrectly
system.switch_cpus.iew.predictedTakenIncorrect        41638                       # Number of branches that were predicted taken incorrectly
system.switch_cpus.iew.wb_consumers          21925874                       # num instructions consuming a value
system.switch_cpus.iew.wb_count              21167044                       # cumulative count of insts written-back
system.switch_cpus.iew.wb_fanout             0.707983                       # average fanout of values written-back
system.switch_cpus.iew.wb_producers          15523136                       # num instructions producing a value
system.switch_cpus.iew.wb_rate               0.362503                       # insts written-back per cycle
system.switch_cpus.iew.wb_sent               21224761                       # cumulative count of insts sent to commit
system.switch_cpus.int_regfile_reads         50018427                       # number of integer regfile reads
system.switch_cpus.int_regfile_writes        17637346                       # number of integer regfile writes
system.switch_cpus.ipc                       0.171258                       # IPC: Instructions Per Cycle
system.switch_cpus.ipc_total                 0.171258                       # IPC: Total IPC of All Threads
system.switch_cpus.iq.FU_type_0::No_OpClass        99730      0.30%      0.30% # Type of FU issued
system.switch_cpus.iq.FU_type_0::IntAlu      16741367     50.47%     50.77% # Type of FU issued
system.switch_cpus.iq.FU_type_0::IntMult          548      0.00%     50.77% # Type of FU issued
system.switch_cpus.iq.FU_type_0::IntDiv             0      0.00%     50.77% # Type of FU issued
system.switch_cpus.iq.FU_type_0::FloatAdd            0      0.00%     50.77% # Type of FU issued
system.switch_cpus.iq.FU_type_0::FloatCmp            0      0.00%     50.77% # Type of FU issued
system.switch_cpus.iq.FU_type_0::FloatCvt            0      0.00%     50.77% # Type of FU issued
system.switch_cpus.iq.FU_type_0::FloatMult            0      0.00%     50.77% # Type of FU issued
system.switch_cpus.iq.FU_type_0::FloatMultAcc            0      0.00%     50.77% # Type of FU issued
system.switch_cpus.iq.FU_type_0::FloatDiv            0      0.00%     50.77% # Type of FU issued
system.switch_cpus.iq.FU_type_0::FloatMisc            0      0.00%     50.77% # Type of FU issued
system.switch_cpus.iq.FU_type_0::FloatSqrt            0      0.00%     50.77% # Type of FU issued
system.switch_cpus.iq.FU_type_0::SimdAdd            0      0.00%     50.77% # Type of FU issued
system.switch_cpus.iq.FU_type_0::SimdAddAcc            0      0.00%     50.77% # Type of FU issued
system.switch_cpus.iq.FU_type_0::SimdAlu            0      0.00%     50.77% # Type of FU issued
system.switch_cpus.iq.FU_type_0::SimdCmp            0      0.00%     50.77% # Type of FU issued
system.switch_cpus.iq.FU_type_0::SimdCvt            0      0.00%     50.77% # Type of FU issued
system.switch_cpus.iq.FU_type_0::SimdMisc            0      0.00%     50.77% # Type of FU issued
system.switch_cpus.iq.FU_type_0::SimdMult            0      0.00%     50.77% # Type of FU issued
system.switch_cpus.iq.FU_type_0::SimdMultAcc            0      0.00%     50.77% # Type of FU issued
system.switch_cpus.iq.FU_type_0::SimdShift            0      0.00%     50.77% # Type of FU issued
system.switch_cpus.iq.FU_type_0::SimdShiftAcc            0      0.00%     50.77% # Type of FU issued
system.switch_cpus.iq.FU_type_0::SimdDiv            0      0.00%     50.77% # Type of FU issued
system.switch_cpus.iq.FU_type_0::SimdSqrt            0      0.00%     50.77% # Type of FU issued
system.switch_cpus.iq.FU_type_0::SimdFloatAdd            0      0.00%     50.77% # Type of FU issued
system.switch_cpus.iq.FU_type_0::SimdFloatAlu            0      0.00%     50.77% # Type of FU issued
system.switch_cpus.iq.FU_type_0::SimdFloatCmp            0      0.00%     50.77% # Type of FU issued
system.switch_cpus.iq.FU_type_0::SimdFloatCvt            0      0.00%     50.77% # Type of FU issued
system.switch_cpus.iq.FU_type_0::SimdFloatDiv            0      0.00%     50.77% # Type of FU issued
system.switch_cpus.iq.FU_type_0::SimdFloatMisc            0      0.00%     50.77% # Type of FU issued
system.switch_cpus.iq.FU_type_0::SimdFloatMult            0      0.00%     50.77% # Type of FU issued
system.switch_cpus.iq.FU_type_0::SimdFloatMultAcc            0      0.00%     50.77% # Type of FU issued
system.switch_cpus.iq.FU_type_0::SimdFloatSqrt            0      0.00%     50.77% # Type of FU issued
system.switch_cpus.iq.FU_type_0::SimdReduceAdd            0      0.00%     50.77% # Type of FU issued
system.switch_cpus.iq.FU_type_0::SimdReduceAlu            0      0.00%     50.77% # Type of FU issued
system.switch_cpus.iq.FU_type_0::SimdReduceCmp            0      0.00%     50.77% # Type of FU issued
system.switch_cpus.iq.FU_type_0::SimdFloatReduceAdd            0      0.00%     50.77% # Type of FU issued
system.switch_cpus.iq.FU_type_0::SimdFloatReduceCmp            0      0.00%     50.77% # Type of FU issued
system.switch_cpus.iq.FU_type_0::SimdAes            0      0.00%     50.77% # Type of FU issued
system.switch_cpus.iq.FU_type_0::SimdAesMix            0      0.00%     50.77% # Type of FU issued
system.switch_cpus.iq.FU_type_0::SimdSha1Hash            0      0.00%     50.77% # Type of FU issued
system.switch_cpus.iq.FU_type_0::SimdSha1Hash2            0      0.00%     50.77% # Type of FU issued
system.switch_cpus.iq.FU_type_0::SimdSha256Hash            0      0.00%     50.77% # Type of FU issued
system.switch_cpus.iq.FU_type_0::SimdSha256Hash2            0      0.00%     50.77% # Type of FU issued
system.switch_cpus.iq.FU_type_0::SimdShaSigma2            0      0.00%     50.77% # Type of FU issued
system.switch_cpus.iq.FU_type_0::SimdShaSigma3            0      0.00%     50.77% # Type of FU issued
system.switch_cpus.iq.FU_type_0::SimdPredAlu            0      0.00%     50.77% # Type of FU issued
system.switch_cpus.iq.FU_type_0::MemRead     15930594     48.02%     98.79% # Type of FU issued
system.switch_cpus.iq.FU_type_0::MemWrite       401723      1.21%    100.00% # Type of FU issued
system.switch_cpus.iq.FU_type_0::FloatMemRead            0      0.00%    100.00% # Type of FU issued
system.switch_cpus.iq.FU_type_0::FloatMemWrite            0      0.00%    100.00% # Type of FU issued
system.switch_cpus.iq.FU_type_0::IprAccess            0      0.00%    100.00% # Type of FU issued
system.switch_cpus.iq.FU_type_0::InstPrefetch            0      0.00%    100.00% # Type of FU issued
system.switch_cpus.iq.FU_type_0::total       33173962                       # Type of FU issued
system.switch_cpus.iq.fp_alu_accesses               0                       # Number of floating point alu accesses
system.switch_cpus.iq.fp_inst_queue_reads            0                       # Number of floating instruction queue reads
system.switch_cpus.iq.fp_inst_queue_wakeup_accesses            0                       # Number of floating instruction queue wakeup accesses
system.switch_cpus.iq.fp_inst_queue_writes            0                       # Number of floating instruction queue writes
system.switch_cpus.iq.fu_busy_cnt             2233722                       # FU busy when requested
system.switch_cpus.iq.fu_busy_rate           0.067334                       # FU busy rate (busy events/executed inst)
system.switch_cpus.iq.fu_full::No_OpClass            0      0.00%      0.00% # attempts to use FU when none available
system.switch_cpus.iq.fu_full::IntAlu           89836      4.02%      4.02% # attempts to use FU when none available
system.switch_cpus.iq.fu_full::IntMult              0      0.00%      4.02% # attempts to use FU when none available
system.switch_cpus.iq.fu_full::IntDiv               0      0.00%      4.02% # attempts to use FU when none available
system.switch_cpus.iq.fu_full::FloatAdd             0      0.00%      4.02% # attempts to use FU when none available
system.switch_cpus.iq.fu_full::FloatCmp             0      0.00%      4.02% # attempts to use FU when none available
system.switch_cpus.iq.fu_full::FloatCvt             0      0.00%      4.02% # attempts to use FU when none available
system.switch_cpus.iq.fu_full::FloatMult            0      0.00%      4.02% # attempts to use FU when none available
system.switch_cpus.iq.fu_full::FloatMultAcc            0      0.00%      4.02% # attempts to use FU when none available
system.switch_cpus.iq.fu_full::FloatDiv             0      0.00%      4.02% # attempts to use FU when none available
system.switch_cpus.iq.fu_full::FloatMisc            0      0.00%      4.02% # attempts to use FU when none available
system.switch_cpus.iq.fu_full::FloatSqrt            0      0.00%      4.02% # attempts to use FU when none available
system.switch_cpus.iq.fu_full::SimdAdd              0      0.00%      4.02% # attempts to use FU when none available
system.switch_cpus.iq.fu_full::SimdAddAcc            0      0.00%      4.02% # attempts to use FU when none available
system.switch_cpus.iq.fu_full::SimdAlu              0      0.00%      4.02% # attempts to use FU when none available
system.switch_cpus.iq.fu_full::SimdCmp              0      0.00%      4.02% # attempts to use FU when none available
system.switch_cpus.iq.fu_full::SimdCvt              0      0.00%      4.02% # attempts to use FU when none available
system.switch_cpus.iq.fu_full::SimdMisc             0      0.00%      4.02% # attempts to use FU when none available
system.switch_cpus.iq.fu_full::SimdMult             0      0.00%      4.02% # attempts to use FU when none available
system.switch_cpus.iq.fu_full::SimdMultAcc            0      0.00%      4.02% # attempts to use FU when none available
system.switch_cpus.iq.fu_full::SimdShift            0      0.00%      4.02% # attempts to use FU when none available
system.switch_cpus.iq.fu_full::SimdShiftAcc            0      0.00%      4.02% # attempts to use FU when none available
system.switch_cpus.iq.fu_full::SimdDiv              0      0.00%      4.02% # attempts to use FU when none available
system.switch_cpus.iq.fu_full::SimdSqrt             0      0.00%      4.02% # attempts to use FU when none available
system.switch_cpus.iq.fu_full::SimdFloatAdd            0      0.00%      4.02% # attempts to use FU when none available
system.switch_cpus.iq.fu_full::SimdFloatAlu            0      0.00%      4.02% # attempts to use FU when none available
system.switch_cpus.iq.fu_full::SimdFloatCmp            0      0.00%      4.02% # attempts to use FU when none available
system.switch_cpus.iq.fu_full::SimdFloatCvt            0      0.00%      4.02% # attempts to use FU when none available
system.switch_cpus.iq.fu_full::SimdFloatDiv            0      0.00%      4.02% # attempts to use FU when none available
system.switch_cpus.iq.fu_full::SimdFloatMisc            0      0.00%      4.02% # attempts to use FU when none available
system.switch_cpus.iq.fu_full::SimdFloatMult            0      0.00%      4.02% # attempts to use FU when none available
system.switch_cpus.iq.fu_full::SimdFloatMultAcc            0      0.00%      4.02% # attempts to use FU when none available
system.switch_cpus.iq.fu_full::SimdFloatSqrt            0      0.00%      4.02% # attempts to use FU when none available
system.switch_cpus.iq.fu_full::SimdReduceAdd            0      0.00%      4.02% # attempts to use FU when none available
system.switch_cpus.iq.fu_full::SimdReduceAlu            0      0.00%      4.02% # attempts to use FU when none available
system.switch_cpus.iq.fu_full::SimdReduceCmp            0      0.00%      4.02% # attempts to use FU when none available
system.switch_cpus.iq.fu_full::SimdFloatReduceAdd            0      0.00%      4.02% # attempts to use FU when none available
system.switch_cpus.iq.fu_full::SimdFloatReduceCmp            0      0.00%      4.02% # attempts to use FU when none available
system.switch_cpus.iq.fu_full::SimdAes              0      0.00%      4.02% # attempts to use FU when none available
system.switch_cpus.iq.fu_full::SimdAesMix            0      0.00%      4.02% # attempts to use FU when none available
system.switch_cpus.iq.fu_full::SimdSha1Hash            0      0.00%      4.02% # attempts to use FU when none available
system.switch_cpus.iq.fu_full::SimdSha1Hash2            0      0.00%      4.02% # attempts to use FU when none available
system.switch_cpus.iq.fu_full::SimdSha256Hash            0      0.00%      4.02% # attempts to use FU when none available
system.switch_cpus.iq.fu_full::SimdSha256Hash2            0      0.00%      4.02% # attempts to use FU when none available
system.switch_cpus.iq.fu_full::SimdShaSigma2            0      0.00%      4.02% # attempts to use FU when none available
system.switch_cpus.iq.fu_full::SimdShaSigma3            0      0.00%      4.02% # attempts to use FU when none available
system.switch_cpus.iq.fu_full::SimdPredAlu            0      0.00%      4.02% # attempts to use FU when none available
system.switch_cpus.iq.fu_full::MemRead        2126439     95.20%     99.22% # attempts to use FU when none available
system.switch_cpus.iq.fu_full::MemWrite         17447      0.78%    100.00% # attempts to use FU when none available
system.switch_cpus.iq.fu_full::FloatMemRead            0      0.00%    100.00% # attempts to use FU when none available
system.switch_cpus.iq.fu_full::FloatMemWrite            0      0.00%    100.00% # attempts to use FU when none available
system.switch_cpus.iq.fu_full::IprAccess            0      0.00%    100.00% # attempts to use FU when none available
system.switch_cpus.iq.fu_full::InstPrefetch            0      0.00%    100.00% # attempts to use FU when none available
system.switch_cpus.iq.int_alu_accesses       35307954                       # Number of integer alu accesses
system.switch_cpus.iq.int_inst_queue_reads    127095304                       # Number of integer instruction queue reads
system.switch_cpus.iq.int_inst_queue_wakeup_accesses     21167044                       # Number of integer instruction queue wakeup accesses
system.switch_cpus.iq.int_inst_queue_writes     30290028                       # Number of integer instruction queue writes
system.switch_cpus.iq.iqInstsAdded           23926896                       # Number of instructions added to the IQ (excludes non-spec)
system.switch_cpus.iq.iqInstsIssued          33173962                       # Number of instructions issued
system.switch_cpus.iq.iqSquashedInstsExamined      6362550                       # Number of squashed instructions iterated over during squash; mainly for profiling
system.switch_cpus.iq.iqSquashedInstsIssued       126286                       # Number of squashed instructions issued
system.switch_cpus.iq.iqSquashedOperandsExamined      9498749                       # Number of squashed operands that are examined and possibly removed from graph
system.switch_cpus.iq.issued_per_cycle::samples     58387374                       # Number of insts issued each cycle
system.switch_cpus.iq.issued_per_cycle::mean     0.568170                       # Number of insts issued each cycle
system.switch_cpus.iq.issued_per_cycle::stdev     1.409865                       # Number of insts issued each cycle
system.switch_cpus.iq.issued_per_cycle::underflows            0      0.00%      0.00% # Number of insts issued each cycle
system.switch_cpus.iq.issued_per_cycle::0     47131367     80.72%     80.72% # Number of insts issued each cycle
system.switch_cpus.iq.issued_per_cycle::1      3621636      6.20%     86.92% # Number of insts issued each cycle
system.switch_cpus.iq.issued_per_cycle::2      1778306      3.05%     89.97% # Number of insts issued each cycle
system.switch_cpus.iq.issued_per_cycle::3      1366760      2.34%     92.31% # Number of insts issued each cycle
system.switch_cpus.iq.issued_per_cycle::4      2193517      3.76%     96.07% # Number of insts issued each cycle
system.switch_cpus.iq.issued_per_cycle::5      1162184      1.99%     98.06% # Number of insts issued each cycle
system.switch_cpus.iq.issued_per_cycle::6       772375      1.32%     99.38% # Number of insts issued each cycle
system.switch_cpus.iq.issued_per_cycle::7       213636      0.37%     99.75% # Number of insts issued each cycle
system.switch_cpus.iq.issued_per_cycle::8       147593      0.25%    100.00% # Number of insts issued each cycle
system.switch_cpus.iq.issued_per_cycle::overflows            0      0.00%    100.00% # Number of insts issued each cycle
system.switch_cpus.iq.issued_per_cycle::min_value            0                       # Number of insts issued each cycle
system.switch_cpus.iq.issued_per_cycle::max_value            8                       # Number of insts issued each cycle
system.switch_cpus.iq.issued_per_cycle::total     58387374                       # Number of insts issued each cycle
system.switch_cpus.iq.rate                   0.568131                       # Inst issue rate
system.switch_cpus.iq.vec_alu_accesses              0                       # Number of vector alu accesses
system.switch_cpus.iq.vec_inst_queue_reads            0                       # Number of vector instruction queue reads
system.switch_cpus.iq.vec_inst_queue_wakeup_accesses            0                       # Number of vector instruction queue wakeup accesses
system.switch_cpus.iq.vec_inst_queue_writes            0                       # Number of vector instruction queue writes
system.switch_cpus.itb.rdAccesses                   0                       # TLB accesses on read requests
system.switch_cpus.itb.rdMisses                     0                       # TLB misses on read requests
system.switch_cpus.itb.wrAccesses              870886                       # TLB accesses on write requests
system.switch_cpus.itb.wrMisses                    57                       # TLB misses on write requests
system.switch_cpus.memDep0.conflictingLoads       198642                       # Number of conflicting loads.
system.switch_cpus.memDep0.conflictingStores       162099                       # Number of conflicting stores.
system.switch_cpus.memDep0.insertedLoads      5061755                       # Number of loads inserted to the mem dependence unit.
system.switch_cpus.memDep0.insertedStores       558702                       # Number of stores inserted to the mem dependence unit.
system.switch_cpus.misc_regfile_reads        22870441                       # number of misc regfile reads
system.switch_cpus.misc_regfile_writes              1                       # number of misc regfile writes
system.switch_cpus.numCycles                 58391384                       # number of cpu cycles simulated
system.switch_cpus.numWorkItemsCompleted            0                       # number of work items this cpu completed
system.switch_cpus.numWorkItemsStarted              0                       # number of work items this cpu started
system.switch_cpus.rename.BlockCycles        29882799                       # Number of cycles rename is blocking
system.switch_cpus.rename.CommittedMaps      22614523                       # Number of HB maps that are committed
system.switch_cpus.rename.IQFullEvents        7784005                       # Number of times rename has blocked due to IQ full
system.switch_cpus.rename.IdleCycles          1744409                       # Number of cycles rename is idle
system.switch_cpus.rename.LQFullEvents       20780694                       # Number of times rename has blocked due to LQ full
system.switch_cpus.rename.ROBFullEvents        125945                       # Number of times rename has blocked due to ROB full
system.switch_cpus.rename.RenameLookups      67006207                       # Number of register rename lookups that rename has made
system.switch_cpus.rename.RenamedInsts       25341794                       # Number of instructions processed by rename
system.switch_cpus.rename.RenamedOperands     31902019                       # Number of destination operands rename has renamed
system.switch_cpus.rename.RunCycles           2785519                       # Number of cycles rename is running
system.switch_cpus.rename.SQFullEvents          57551                       # Number of times rename has blocked due to SQ full
system.switch_cpus.rename.SquashCycles         172126                       # Number of cycles rename is squashing
system.switch_cpus.rename.UnblockCycles      23801298                       # Number of cycles rename is unblocking
system.switch_cpus.rename.UndoneMaps          9287324                       # Number of HB maps that are undone due to squashing
system.switch_cpus.rename.int_rename_lookups     34200622                       # Number of integer rename lookups
system.switch_cpus.rename.serializeStallCycles         1216                       # count of cycles rename stalled for serializing inst
system.switch_cpus.rename.serializingInsts         2067                       # count of serializing insts renamed
system.switch_cpus.rename.skidInsts           9130917                       # count of insts added to the skid buffer
system.switch_cpus.rename.tempSerializingInsts         2054                       # count of temporary serializing insts renamed
system.switch_cpus.rob.rob_reads             79956251                       # The number of ROB reads
system.switch_cpus.rob.rob_writes            48865944                       # The number of ROB writes
system.switch_cpus.timesIdled                      46                       # Number of times that the entire CPU went into an idle state and unscheduled itself
system.tol2bus.snoop_filter.hit_multi_requests            0                       # Number of requests hitting in the snoop filter with multiple (>1) holders of the requested data.
system.tol2bus.snoop_filter.hit_multi_snoops            0                       # Number of snoops hitting in the snoop filter with multiple (>1) holders of the requested data.
system.tol2bus.snoop_filter.hit_single_requests      1417656                       # Number of requests hitting in the snoop filter with a single holder of the requested data.
system.tol2bus.snoop_filter.hit_single_snoops       430373                       # Number of snoops hitting in the snoop filter with a single holder of the requested data.
system.tol2bus.snoop_filter.tot_requests      2836402                       # Total number of requests made to the snoop filter.
system.tol2bus.snoop_filter.tot_snoops         430373                       # Total number of snoops made to the snoop filter.
system.membus.pwrStateResidencyTicks::UNDEFINED 190179729972000                       # Cumulative time (in ticks) in various power states
system.membus.trans_dist::ReadResp             855167                       # Transaction distribution
system.membus.trans_dist::WritebackDirty        44823                       # Transaction distribution
system.membus.trans_dist::CleanEvict           809666                       # Transaction distribution
system.membus.trans_dist::ReadExReq              3564                       # Transaction distribution
system.membus.trans_dist::ReadExResp             3564                       # Transaction distribution
system.membus.trans_dist::ReadSharedReq        855170                       # Transaction distribution
system.membus.pkt_count_system.l2.mem_side::system.mem_ctrls.port      2571954                       # Packet count per connected master and slave (bytes)
system.membus.pkt_count_system.l2.mem_side::total      2571954                       # Packet count per connected master and slave (bytes)
system.membus.pkt_count::total                2571954                       # Packet count per connected master and slave (bytes)
system.membus.pkt_size_system.l2.mem_side::system.mem_ctrls.port     57827456                       # Cumulative packet size per connected master and slave (bytes)
system.membus.pkt_size_system.l2.mem_side::total     57827456                       # Cumulative packet size per connected master and slave (bytes)
system.membus.pkt_size::total                57827456                       # Cumulative packet size per connected master and slave (bytes)
system.membus.snoops                                0                       # Total snoops (count)
system.membus.snoopTraffic                          0                       # Total snoop traffic (bytes)
system.membus.snoop_fanout::samples            858734                       # Request fanout histogram
system.membus.snoop_fanout::mean                    0                       # Request fanout histogram
system.membus.snoop_fanout::stdev                   0                       # Request fanout histogram
system.membus.snoop_fanout::underflows              0      0.00%      0.00% # Request fanout histogram
system.membus.snoop_fanout::0                  858734    100.00%    100.00% # Request fanout histogram
system.membus.snoop_fanout::1                       0      0.00%    100.00% # Request fanout histogram
system.membus.snoop_fanout::overflows               0      0.00%    100.00% # Request fanout histogram
system.membus.snoop_fanout::min_value               0                       # Request fanout histogram
system.membus.snoop_fanout::max_value               0                       # Request fanout histogram
system.membus.snoop_fanout::total              858734                       # Request fanout histogram
system.membus.reqLayer2.occupancy          2048252000                       # Layer occupancy (ticks)
system.membus.reqLayer2.utilization               7.0                       # Layer utilization (%)
system.membus.respLayer1.occupancy         4816803000                       # Layer occupancy (ticks)
system.membus.respLayer1.utilization             16.5                       # Layer utilization (%)
system.switch_cpus.pwrStateResidencyTicks::OFF  29195703250                       # Cumulative time (in ticks) in various power states
system.switch_cpus.dtb.walker.pwrStateResidencyTicks::UNDEFINED 190179729972000                       # Cumulative time (in ticks) in various power states
system.switch_cpus.itb.walker.pwrStateResidencyTicks::UNDEFINED 190179729972000                       # Cumulative time (in ticks) in various power states
system.tol2bus.pwrStateResidencyTicks::UNDEFINED 190179729972000                       # Cumulative time (in ticks) in various power states
system.tol2bus.trans_dist::ReadResp           1410802                       # Transaction distribution
system.tol2bus.trans_dist::WritebackDirty       217032                       # Transaction distribution
system.tol2bus.trans_dist::CleanEvict         2083503                       # Transaction distribution
system.tol2bus.trans_dist::HardPFReq               42                       # Transaction distribution
system.tol2bus.trans_dist::ReadExReq             7940                       # Transaction distribution
system.tol2bus.trans_dist::ReadExResp            7940                       # Transaction distribution
system.tol2bus.trans_dist::ReadCleanReq            62                       # Transaction distribution
system.tol2bus.trans_dist::ReadSharedReq      1410744                       # Transaction distribution
system.tol2bus.pkt_count_system.cpu.icache.mem_side::system.l2.cpu_side          124                       # Packet count per connected master and slave (bytes)
system.tol2bus.pkt_count_system.cpu.dcache.mem_side::system.l2.cpu_side      4255020                       # Packet count per connected master and slave (bytes)
system.tol2bus.pkt_count::total               4255144                       # Packet count per connected master and slave (bytes)
system.tol2bus.pkt_size_system.cpu.icache.mem_side::system.l2.cpu_side         3968                       # Cumulative packet size per connected master and slave (bytes)
system.tol2bus.pkt_size_system.cpu.dcache.mem_side::system.l2.cpu_side    101816896                       # Cumulative packet size per connected master and slave (bytes)
system.tol2bus.pkt_size::total              101820864                       # Cumulative packet size per connected master and slave (bytes)
system.tol2bus.snoops                          882921                       # Total snoops (count)
system.tol2bus.snoopTraffic                   2868672                       # Total snoop traffic (bytes)
system.tol2bus.snoop_fanout::samples          2301667                       # Request fanout histogram
system.tol2bus.snoop_fanout::mean            0.186983                       # Request fanout histogram
system.tol2bus.snoop_fanout::stdev           0.389898                       # Request fanout histogram
system.tol2bus.snoop_fanout::underflows             0      0.00%      0.00% # Request fanout histogram
system.tol2bus.snoop_fanout::0                1871294     81.30%     81.30% # Request fanout histogram
system.tol2bus.snoop_fanout::1                 430373     18.70%    100.00% # Request fanout histogram
system.tol2bus.snoop_fanout::2                      0      0.00%    100.00% # Request fanout histogram
system.tol2bus.snoop_fanout::3                      0      0.00%    100.00% # Request fanout histogram
system.tol2bus.snoop_fanout::4                      0      0.00%    100.00% # Request fanout histogram
system.tol2bus.snoop_fanout::overflows              0      0.00%    100.00% # Request fanout histogram
system.tol2bus.snoop_fanout::min_value              0                       # Request fanout histogram
system.tol2bus.snoop_fanout::max_value              1                       # Request fanout histogram
system.tol2bus.snoop_fanout::total            2301667                       # Request fanout histogram
system.tol2bus.reqLayer0.occupancy         1590408500                       # Layer occupancy (ticks)
system.tol2bus.reqLayer0.utilization              5.4                       # Layer utilization (%)
system.tol2bus.respLayer1.occupancy        2128017000                       # Layer occupancy (ticks)
system.tol2bus.respLayer1.utilization             7.3                       # Layer utilization (%)
system.tol2bus.respLayer0.occupancy             91500                       # Layer occupancy (ticks)
system.tol2bus.respLayer0.utilization             0.0                       # Layer utilization (%)
system.voltage_domain.voltage                       1                       # Voltage in Volts
system.clk_domain.clock                          1000                       # Clock period in ticks
system.l2.pwrStateResidencyTicks::UNDEFINED 190179729972000                       # Cumulative time (in ticks) in various power states
system.l2.demand_hits::.switch_cpus.data       560035                       # number of demand (read+write) hits
system.l2.demand_hits::total                   560035                       # number of demand (read+write) hits
system.l2.overall_hits::.switch_cpus.data       560035                       # number of overall hits
system.l2.overall_hits::total                  560035                       # number of overall hits
system.l2.demand_misses::.cpu.inst                  1                       # number of demand (read+write) misses
system.l2.demand_misses::.cpu.data                  2                       # number of demand (read+write) misses
system.l2.demand_misses::.switch_cpus.inst           61                       # number of demand (read+write) misses
system.l2.demand_misses::.switch_cpus.data       858647                       # number of demand (read+write) misses
system.l2.demand_misses::total                 858711                       # number of demand (read+write) misses
system.l2.overall_misses::.cpu.inst                 1                       # number of overall misses
system.l2.overall_misses::.cpu.data                 2                       # number of overall misses
system.l2.overall_misses::.switch_cpus.inst           61                       # number of overall misses
system.l2.overall_misses::.switch_cpus.data       858647                       # number of overall misses
system.l2.overall_misses::total                858711                       # number of overall misses
system.l2.demand_miss_latency::.switch_cpus.inst      4931500                       # number of demand (read+write) miss cycles
system.l2.demand_miss_latency::.switch_cpus.data  87184478500                       # number of demand (read+write) miss cycles
system.l2.demand_miss_latency::total      87189410000                       # number of demand (read+write) miss cycles
system.l2.overall_miss_latency::.switch_cpus.inst      4931500                       # number of overall miss cycles
system.l2.overall_miss_latency::.switch_cpus.data  87184478500                       # number of overall miss cycles
system.l2.overall_miss_latency::total     87189410000                       # number of overall miss cycles
system.l2.demand_accesses::.cpu.inst                1                       # number of demand (read+write) accesses
system.l2.demand_accesses::.cpu.data                2                       # number of demand (read+write) accesses
system.l2.demand_accesses::.switch_cpus.inst           61                       # number of demand (read+write) accesses
system.l2.demand_accesses::.switch_cpus.data      1418682                       # number of demand (read+write) accesses
system.l2.demand_accesses::total              1418746                       # number of demand (read+write) accesses
system.l2.overall_accesses::.cpu.inst               1                       # number of overall (read+write) accesses
system.l2.overall_accesses::.cpu.data               2                       # number of overall (read+write) accesses
system.l2.overall_accesses::.switch_cpus.inst           61                       # number of overall (read+write) accesses
system.l2.overall_accesses::.switch_cpus.data      1418682                       # number of overall (read+write) accesses
system.l2.overall_accesses::total             1418746                       # number of overall (read+write) accesses
system.l2.demand_miss_rate::.cpu.inst               1                       # miss rate for demand accesses
system.l2.demand_miss_rate::.cpu.data               1                       # miss rate for demand accesses
system.l2.demand_miss_rate::.switch_cpus.inst            1                       # miss rate for demand accesses
system.l2.demand_miss_rate::.switch_cpus.data     0.605243                       # miss rate for demand accesses
system.l2.demand_miss_rate::total            0.605261                       # miss rate for demand accesses
system.l2.overall_miss_rate::.cpu.inst              1                       # miss rate for overall accesses
system.l2.overall_miss_rate::.cpu.data              1                       # miss rate for overall accesses
system.l2.overall_miss_rate::.switch_cpus.inst            1                       # miss rate for overall accesses
system.l2.overall_miss_rate::.switch_cpus.data     0.605243                       # miss rate for overall accesses
system.l2.overall_miss_rate::total           0.605261                       # miss rate for overall accesses
system.l2.demand_avg_miss_latency::.switch_cpus.inst 80844.262295                       # average overall miss latency
system.l2.demand_avg_miss_latency::.switch_cpus.data 101537.044327                       # average overall miss latency
system.l2.demand_avg_miss_latency::total 101535.219649                       # average overall miss latency
system.l2.overall_avg_miss_latency::.switch_cpus.inst 80844.262295                       # average overall miss latency
system.l2.overall_avg_miss_latency::.switch_cpus.data 101537.044327                       # average overall miss latency
system.l2.overall_avg_miss_latency::total 101535.219649                       # average overall miss latency
system.l2.blocked_cycles::no_mshrs                  0                       # number of cycles access was blocked
system.l2.blocked_cycles::no_targets                0                       # number of cycles access was blocked
system.l2.blocked::no_mshrs                         0                       # number of cycles access was blocked
system.l2.blocked::no_targets                       0                       # number of cycles access was blocked
system.l2.avg_blocked_cycles::no_mshrs            nan                       # average number of cycles each access was blocked
system.l2.avg_blocked_cycles::no_targets          nan                       # average number of cycles each access was blocked
system.l2.unused_prefetches                        19                       # number of HardPF blocks evicted w/o reference
system.l2.writebacks::.writebacks               44823                       # number of writebacks
system.l2.writebacks::total                     44823                       # number of writebacks
system.l2.demand_mshr_misses::.switch_cpus.inst           61                       # number of demand (read+write) MSHR misses
system.l2.demand_mshr_misses::.switch_cpus.data       858647                       # number of demand (read+write) MSHR misses
system.l2.demand_mshr_misses::total            858708                       # number of demand (read+write) MSHR misses
system.l2.overall_mshr_misses::.l2.prefetcher           24                       # number of overall MSHR misses
system.l2.overall_mshr_misses::.switch_cpus.inst           61                       # number of overall MSHR misses
system.l2.overall_mshr_misses::.switch_cpus.data       858647                       # number of overall MSHR misses
system.l2.overall_mshr_misses::total           858732                       # number of overall MSHR misses
system.l2.demand_mshr_miss_latency::.switch_cpus.inst      4321500                       # number of demand (read+write) MSHR miss cycles
system.l2.demand_mshr_miss_latency::.switch_cpus.data  78598048500                       # number of demand (read+write) MSHR miss cycles
system.l2.demand_mshr_miss_latency::total  78602370000                       # number of demand (read+write) MSHR miss cycles
system.l2.overall_mshr_miss_latency::.l2.prefetcher      2018982                       # number of overall MSHR miss cycles
system.l2.overall_mshr_miss_latency::.switch_cpus.inst      4321500                       # number of overall MSHR miss cycles
system.l2.overall_mshr_miss_latency::.switch_cpus.data  78598048500                       # number of overall MSHR miss cycles
system.l2.overall_mshr_miss_latency::total  78604388982                       # number of overall MSHR miss cycles
system.l2.demand_mshr_miss_rate::.switch_cpus.inst            1                       # mshr miss rate for demand accesses
system.l2.demand_mshr_miss_rate::.switch_cpus.data     0.605243                       # mshr miss rate for demand accesses
system.l2.demand_mshr_miss_rate::total       0.605258                       # mshr miss rate for demand accesses
system.l2.overall_mshr_miss_rate::.l2.prefetcher          inf                       # mshr miss rate for overall accesses
system.l2.overall_mshr_miss_rate::.switch_cpus.inst            1                       # mshr miss rate for overall accesses
system.l2.overall_mshr_miss_rate::.switch_cpus.data     0.605243                       # mshr miss rate for overall accesses
system.l2.overall_mshr_miss_rate::total      0.605275                       # mshr miss rate for overall accesses
system.l2.demand_avg_mshr_miss_latency::.switch_cpus.inst 70844.262295                       # average overall mshr miss latency
system.l2.demand_avg_mshr_miss_latency::.switch_cpus.data 91537.090912                       # average overall mshr miss latency
system.l2.demand_avg_mshr_miss_latency::total 91535.620956                       # average overall mshr miss latency
system.l2.overall_avg_mshr_miss_latency::.l2.prefetcher 84124.250000                       # average overall mshr miss latency
system.l2.overall_avg_mshr_miss_latency::.switch_cpus.inst 70844.262295                       # average overall mshr miss latency
system.l2.overall_avg_mshr_miss_latency::.switch_cpus.data 91537.090912                       # average overall mshr miss latency
system.l2.overall_avg_mshr_miss_latency::total 91535.413822                       # average overall mshr miss latency
system.l2.replacements                         882879                       # number of replacements
system.l2.WritebackDirty_hits::.writebacks       172209                       # number of WritebackDirty hits
system.l2.WritebackDirty_hits::total           172209                       # number of WritebackDirty hits
system.l2.WritebackDirty_accesses::.writebacks       172209                       # number of WritebackDirty accesses(hits+misses)
system.l2.WritebackDirty_accesses::total       172209                       # number of WritebackDirty accesses(hits+misses)
system.l2.CleanEvict_mshr_misses::.writebacks       401983                       # number of CleanEvict MSHR misses
system.l2.CleanEvict_mshr_misses::total        401983                       # number of CleanEvict MSHR misses
system.l2.CleanEvict_mshr_miss_rate::.writebacks          inf                       # mshr miss rate for CleanEvict accesses
system.l2.CleanEvict_mshr_miss_rate::total          inf                       # mshr miss rate for CleanEvict accesses
system.l2.HardPFReq_mshr_misses::.l2.prefetcher           24                       # number of HardPFReq MSHR misses
system.l2.HardPFReq_mshr_misses::total             24                       # number of HardPFReq MSHR misses
system.l2.HardPFReq_mshr_miss_latency::.l2.prefetcher      2018982                       # number of HardPFReq MSHR miss cycles
system.l2.HardPFReq_mshr_miss_latency::total      2018982                       # number of HardPFReq MSHR miss cycles
system.l2.HardPFReq_mshr_miss_rate::.l2.prefetcher          inf                       # mshr miss rate for HardPFReq accesses
system.l2.HardPFReq_mshr_miss_rate::total          inf                       # mshr miss rate for HardPFReq accesses
system.l2.HardPFReq_avg_mshr_miss_latency::.l2.prefetcher 84124.250000                       # average HardPFReq mshr miss latency
system.l2.HardPFReq_avg_mshr_miss_latency::total 84124.250000                       # average HardPFReq mshr miss latency
system.l2.ReadExReq_hits::.switch_cpus.data         4376                       # number of ReadExReq hits
system.l2.ReadExReq_hits::total                  4376                       # number of ReadExReq hits
system.l2.ReadExReq_misses::.switch_cpus.data         3564                       # number of ReadExReq misses
system.l2.ReadExReq_misses::total                3564                       # number of ReadExReq misses
system.l2.ReadExReq_miss_latency::.switch_cpus.data    302145000                       # number of ReadExReq miss cycles
system.l2.ReadExReq_miss_latency::total     302145000                       # number of ReadExReq miss cycles
system.l2.ReadExReq_accesses::.switch_cpus.data         7940                       # number of ReadExReq accesses(hits+misses)
system.l2.ReadExReq_accesses::total              7940                       # number of ReadExReq accesses(hits+misses)
system.l2.ReadExReq_miss_rate::.switch_cpus.data     0.448866                       # miss rate for ReadExReq accesses
system.l2.ReadExReq_miss_rate::total         0.448866                       # miss rate for ReadExReq accesses
system.l2.ReadExReq_avg_miss_latency::.switch_cpus.data 84776.936027                       # average ReadExReq miss latency
system.l2.ReadExReq_avg_miss_latency::total 84776.936027                       # average ReadExReq miss latency
system.l2.ReadExReq_mshr_misses::.switch_cpus.data         3564                       # number of ReadExReq MSHR misses
system.l2.ReadExReq_mshr_misses::total           3564                       # number of ReadExReq MSHR misses
system.l2.ReadExReq_mshr_miss_latency::.switch_cpus.data    266505000                       # number of ReadExReq MSHR miss cycles
system.l2.ReadExReq_mshr_miss_latency::total    266505000                       # number of ReadExReq MSHR miss cycles
system.l2.ReadExReq_mshr_miss_rate::.switch_cpus.data     0.448866                       # mshr miss rate for ReadExReq accesses
system.l2.ReadExReq_mshr_miss_rate::total     0.448866                       # mshr miss rate for ReadExReq accesses
system.l2.ReadExReq_avg_mshr_miss_latency::.switch_cpus.data 74776.936027                       # average ReadExReq mshr miss latency
system.l2.ReadExReq_avg_mshr_miss_latency::total 74776.936027                       # average ReadExReq mshr miss latency
system.l2.ReadCleanReq_misses::.cpu.inst            1                       # number of ReadCleanReq misses
system.l2.ReadCleanReq_misses::.switch_cpus.inst           61                       # number of ReadCleanReq misses
system.l2.ReadCleanReq_misses::total               62                       # number of ReadCleanReq misses
system.l2.ReadCleanReq_miss_latency::.switch_cpus.inst      4931500                       # number of ReadCleanReq miss cycles
[...]
system.cpu.icache.tags.age_task_id_blocks_1024::4           62                       # Occupied blocks per task id
system.cpu.icache.tags.occ_task_id_percent::1024     0.121094                       # Percentage of cache occupancy per task id
system.cpu.icache.tags.tag_accesses           2677758                       # Number of tag accesses
system.cpu.icache.tags.data_accesses          2677758                       # Number of data accesses
system.cpu.dtb.walker.pwrStateResidencyTicks::UNDEFINED 190268987293000                       # Cumulative time (in ticks) in various power states
system.cpu.interrupts.clk_domain.clock           8000                       # Clock period in ticks
system.cpu.itb_walker_cache.pwrStateResidencyTicks::UNDEFINED 190268987293000                       # Cumulative time (in ticks) in various power states
system.cpu.itb_walker_cache.blocked_cycles::no_mshrs            0                       # number of cycles access was blocked
system.cpu.itb_walker_cache.blocked_cycles::no_targets            0                       # number of cycles access was blocked
system.cpu.itb_walker_cache.blocked::no_mshrs            0                       # number of cycles access was blocked
system.cpu.itb_walker_cache.blocked::no_targets            0                       # number of cycles access was blocked
system.cpu.itb_walker_cache.avg_blocked_cycles::no_mshrs          nan                       # average number of cycles each access was blocked
system.cpu.itb_walker_cache.avg_blocked_cycles::no_targets          nan                       # average number of cycles each access was blocked
system.cpu.itb_walker_cache.replacements            0                       # number of replacements
system.cpu.itb_walker_cache.tags.pwrStateResidencyTicks::UNDEFINED 190268987293000                       # Cumulative time (in ticks) in various power states
system.cpu.itb_walker_cache.tags.tagsinuse            0                       # Cycle average of tags in use
system.cpu.itb_walker_cache.tags.total_refs            0                       # Total number of references to valid blocks.
system.cpu.itb_walker_cache.tags.sampled_refs            0                       # Sample count of references to valid blocks.
system.cpu.itb_walker_cache.tags.avg_refs          nan                       # Average number of references to valid blocks.
system.cpu.itb_walker_cache.tags.warmup_cycle            0                       # Cycle when the warmup percentage was hit.
system.cpu.itb_walker_cache.tags.tag_accesses            0                       # Number of tag accesses
system.cpu.itb_walker_cache.tags.data_accesses            0                       # Number of data accesses
system.cpu.itb.walker.pwrStateResidencyTicks::UNDEFINED 190268987293000                       # Cumulative time (in ticks) in various power states
system.cpu.dtb_walker_cache.pwrStateResidencyTicks::UNDEFINED 190268987293000                       # Cumulative time (in ticks) in various power states
system.cpu.dtb_walker_cache.blocked_cycles::no_mshrs            0                       # number of cycles access was blocked
system.cpu.dtb_walker_cache.blocked_cycles::no_targets            0                       # number of cycles access was blocked
system.cpu.dtb_walker_cache.blocked::no_mshrs            0                       # number of cycles access was blocked
system.cpu.dtb_walker_cache.blocked::no_targets            0                       # number of cycles access was blocked
system.cpu.dtb_walker_cache.avg_blocked_cycles::no_mshrs          nan                       # average number of cycles each access was blocked
system.cpu.dtb_walker_cache.avg_blocked_cycles::no_targets          nan                       # average number of cycles each access was blocked
system.cpu.dtb_walker_cache.replacements            0                       # number of replacements
system.cpu.dtb_walker_cache.tags.pwrStateResidencyTicks::UNDEFINED 190268987293000                       # Cumulative time (in ticks) in various power states
system.cpu.dtb_walker_cache.tags.tagsinuse            0                       # Cycle average of tags in use
system.cpu.dtb_walker_cache.tags.total_refs            0                       # Total number of references to valid blocks.
system.cpu.dtb_walker_cache.tags.sampled_refs            0                       # Sample count of references to valid blocks.
system.cpu.dtb_walker_cache.tags.avg_refs          nan                       # Average number of references to valid blocks.
system.cpu.dtb_walker_cache.tags.warmup_cycle            0                       # Cycle when the warmup percentage was hit.
system.cpu.dtb_walker_cache.tags.tag_accesses            0                       # Number of tag accesses
system.cpu.dtb_walker_cache.tags.data_accesses            0                       # Number of data accesses
system.cpu.dcache.pwrStateResidencyTicks::UNDEFINED 190268987293000                       # Cumulative time (in ticks) in various power states
system.cpu.dcache.demand_hits::.switch_cpus.data      4275865                       # number of demand (read+write) hits
system.cpu.dcache.demand_hits::total          4275865                       # number of demand (read+write) hits
system.cpu.dcache.overall_hits::.switch_cpus.data      4275865                       # number of overall hits
system.cpu.dcache.overall_hits::total         4275865                       # number of overall hits
system.cpu.dcache.demand_misses::.cpu.data            2                       # number of demand (read+write) misses
system.cpu.dcache.demand_misses::.switch_cpus.data     13552843                       # number of demand (read+write) misses
system.cpu.dcache.demand_misses::total       13552845                       # number of demand (read+write) misses
system.cpu.dcache.overall_misses::.cpu.data            2                       # number of overall misses
system.cpu.dcache.overall_misses::.switch_cpus.data     13552843                       # number of overall misses
system.cpu.dcache.overall_misses::total      13552845                       # number of overall misses
system.cpu.dcache.demand_miss_latency::.switch_cpus.data 918296650086                       # number of demand (read+write) miss cycles
system.cpu.dcache.demand_miss_latency::total 918296650086                       # number of demand (read+write) miss cycles
system.cpu.dcache.overall_miss_latency::.switch_cpus.data 918296650086                       # number of overall miss cycles
system.cpu.dcache.overall_miss_latency::total 918296650086                       # number of overall miss cycles
system.cpu.dcache.demand_accesses::.cpu.data            2                       # number of demand (read+write) accesses
system.cpu.dcache.demand_accesses::.switch_cpus.data     17828708                       # number of demand (read+write) accesses
system.cpu.dcache.demand_accesses::total     17828710                       # number of demand (read+write) accesses
system.cpu.dcache.overall_accesses::.cpu.data            2                       # number of overall (read+write) accesses
system.cpu.dcache.overall_accesses::.switch_cpus.data     17828708                       # number of overall (read+write) accesses
system.cpu.dcache.overall_accesses::total     17828710                       # number of overall (read+write) accesses
system.cpu.dcache.demand_miss_rate::.cpu.data            1                       # miss rate for demand accesses
system.cpu.dcache.demand_miss_rate::.switch_cpus.data     0.760170                       # miss rate for demand accesses
system.cpu.dcache.demand_miss_rate::total     0.760170                       # miss rate for demand accesses
system.cpu.dcache.overall_miss_rate::.cpu.data            1                       # miss rate for overall accesses
system.cpu.dcache.overall_miss_rate::.switch_cpus.data     0.760170                       # miss rate for overall accesses
system.cpu.dcache.overall_miss_rate::total     0.760170                       # miss rate for overall accesses
system.cpu.dcache.demand_avg_miss_latency::.switch_cpus.data 67756.754069                       # average overall miss latency
system.cpu.dcache.demand_avg_miss_latency::total 67756.744070                       # average overall miss latency
system.cpu.dcache.overall_avg_miss_latency::.switch_cpus.data 67756.754069                       # average overall miss latency
system.cpu.dcache.overall_avg_miss_latency::total 67756.744070                       # average overall miss latency
system.cpu.dcache.blocked_cycles::no_mshrs    196861001                       # number of cycles access was blocked
system.cpu.dcache.blocked_cycles::no_targets          127                       # number of cycles access was blocked
system.cpu.dcache.blocked::no_mshrs           6181739                       # number of cycles access was blocked
system.cpu.dcache.blocked::no_targets               4                       # number of cycles access was blocked
system.cpu.dcache.avg_blocked_cycles::no_mshrs    31.845570                       # average number of cycles each access was blocked
system.cpu.dcache.avg_blocked_cycles::no_targets    31.750000                       # average number of cycles each access was blocked
system.cpu.dcache.writebacks::.writebacks       463352                       # number of writebacks
system.cpu.dcache.writebacks::total            463352                       # number of writebacks
system.cpu.dcache.demand_mshr_hits::.switch_cpus.data      6978985                       # number of demand (read+write) MSHR hits
system.cpu.dcache.demand_mshr_hits::total      6978985                       # number of demand (read+write) MSHR hits
system.cpu.dcache.overall_mshr_hits::.switch_cpus.data      6978985                       # number of overall MSHR hits
system.cpu.dcache.overall_mshr_hits::total      6978985                       # number of overall MSHR hits
system.cpu.dcache.demand_mshr_misses::.switch_cpus.data      6573858                       # number of demand (read+write) MSHR misses
system.cpu.dcache.demand_mshr_misses::total      6573858                       # number of demand (read+write) MSHR misses
system.cpu.dcache.overall_mshr_misses::.switch_cpus.data      6573858                       # number of overall MSHR misses
system.cpu.dcache.overall_mshr_misses::total      6573858                       # number of overall MSHR misses
system.cpu.dcache.demand_mshr_miss_latency::.switch_cpus.data 435083514671                       # number of demand (read+write) MSHR miss cycles
system.cpu.dcache.demand_mshr_miss_latency::total 435083514671                       # number of demand (read+write) MSHR miss cycles
system.cpu.dcache.overall_mshr_miss_latency::.switch_cpus.data 435083514671                       # number of overall MSHR miss cycles
system.cpu.dcache.overall_mshr_miss_latency::total 435083514671                       # number of overall MSHR miss cycles
system.cpu.dcache.demand_mshr_miss_rate::.switch_cpus.data     0.368723                       # mshr miss rate for demand accesses
system.cpu.dcache.demand_mshr_miss_rate::total     0.368723                       # mshr miss rate for demand accesses
system.cpu.dcache.overall_mshr_miss_rate::.switch_cpus.data     0.368723                       # mshr miss rate for overall accesses
system.cpu.dcache.overall_mshr_miss_rate::total     0.368723                       # mshr miss rate for overall accesses
system.cpu.dcache.demand_avg_mshr_miss_latency::.switch_cpus.data 66183.893031                       # average overall mshr miss latency
system.cpu.dcache.demand_avg_mshr_miss_latency::total 66183.893031                       # average overall mshr miss latency
system.cpu.dcache.overall_avg_mshr_miss_latency::.switch_cpus.data 66183.893031                       # average overall mshr miss latency
system.cpu.dcache.overall_avg_mshr_miss_latency::total 66183.893031                       # average overall mshr miss latency
system.cpu.dcache.replacements                6572832                       # number of replacements
system.cpu.dcache.ReadReq_hits::.switch_cpus.data      3879848                       # number of ReadReq hits
system.cpu.dcache.ReadReq_hits::total         3879848                       # number of ReadReq hits
system.cpu.dcache.ReadReq_misses::.cpu.data            2                       # number of ReadReq misses
system.cpu.dcache.ReadReq_misses::.switch_cpus.data     13541879                       # number of ReadReq misses
system.cpu.dcache.ReadReq_misses::total      13541881                       # number of ReadReq misses
system.cpu.dcache.ReadReq_miss_latency::.switch_cpus.data 917815190000                       # number of ReadReq miss cycles
system.cpu.dcache.ReadReq_miss_latency::total 917815190000                       # number of ReadReq miss cycles
system.cpu.dcache.ReadReq_accesses::.cpu.data            2                       # number of ReadReq accesses(hits+misses)
system.cpu.dcache.ReadReq_accesses::.switch_cpus.data     17421727                       # number of ReadReq accesses(hits+misses)
system.cpu.dcache.ReadReq_accesses::total     17421729                       # number of ReadReq accesses(hits+misses)
system.cpu.dcache.ReadReq_miss_rate::.cpu.data            1                       # miss rate for ReadReq accesses
system.cpu.dcache.ReadReq_miss_rate::.switch_cpus.data     0.777298                       # miss rate for ReadReq accesses
system.cpu.dcache.ReadReq_miss_rate::total     0.777298                       # miss rate for ReadReq accesses
system.cpu.dcache.ReadReq_avg_miss_latency::.switch_cpus.data 67776.058994                       # average ReadReq miss latency
system.cpu.dcache.ReadReq_avg_miss_latency::total 67776.048985                       # average ReadReq miss latency
system.cpu.dcache.ReadReq_mshr_hits::.switch_cpus.data      6978718                       # number of ReadReq MSHR hits
system.cpu.dcache.ReadReq_mshr_hits::total      6978718                       # number of ReadReq MSHR hits
system.cpu.dcache.ReadReq_mshr_misses::.switch_cpus.data      6563161                       # number of ReadReq MSHR misses
system.cpu.dcache.ReadReq_mshr_misses::total      6563161                       # number of ReadReq MSHR misses
system.cpu.dcache.ReadReq_mshr_miss_latency::.switch_cpus.data 434616761000                       # number of ReadReq MSHR miss cycles
system.cpu.dcache.ReadReq_mshr_miss_latency::total 434616761000                       # number of ReadReq MSHR miss cycles
system.cpu.dcache.ReadReq_mshr_miss_rate::.switch_cpus.data     0.376723                       # mshr miss rate for ReadReq accesses
system.cpu.dcache.ReadReq_mshr_miss_rate::total     0.376723                       # mshr miss rate for ReadReq accesses
system.cpu.dcache.ReadReq_avg_mshr_miss_latency::.switch_cpus.data 66220.645966                       # average ReadReq mshr miss latency
system.cpu.dcache.ReadReq_avg_mshr_miss_latency::total 66220.645966                       # average ReadReq mshr miss latency
system.cpu.dcache.WriteReq_hits::.switch_cpus.data       396017                       # number of WriteReq hits
system.cpu.dcache.WriteReq_hits::total         396017                       # number of WriteReq hits
system.cpu.dcache.WriteReq_misses::.switch_cpus.data        10964                       # number of WriteReq misses
system.cpu.dcache.WriteReq_misses::total        10964                       # number of WriteReq misses
system.cpu.dcache.WriteReq_miss_latency::.switch_cpus.data    481460086                       # number of WriteReq miss cycles
system.cpu.dcache.WriteReq_miss_latency::total    481460086                       # number of WriteReq miss cycles
system.cpu.dcache.WriteReq_accesses::.switch_cpus.data       406981                       # number of WriteReq accesses(hits+misses)
system.cpu.dcache.WriteReq_accesses::total       406981                       # number of WriteReq accesses(hits+misses)
system.cpu.dcache.WriteReq_miss_rate::.switch_cpus.data     0.026940                       # miss rate for WriteReq accesses
system.cpu.dcache.WriteReq_miss_rate::total     0.026940                       # miss rate for WriteReq accesses
system.cpu.dcache.WriteReq_avg_miss_latency::.switch_cpus.data 43912.813389                       # average WriteReq miss latency
system.cpu.dcache.WriteReq_avg_miss_latency::total 43912.813389                       # average WriteReq miss latency
system.cpu.dcache.WriteReq_mshr_hits::.switch_cpus.data          267                       # number of WriteReq MSHR hits
system.cpu.dcache.WriteReq_mshr_hits::total          267                       # number of WriteReq MSHR hits
system.cpu.dcache.WriteReq_mshr_misses::.switch_cpus.data        10697                       # number of WriteReq MSHR misses
system.cpu.dcache.WriteReq_mshr_misses::total        10697                       # number of WriteReq MSHR misses
system.cpu.dcache.WriteReq_mshr_miss_latency::.switch_cpus.data    466753671                       # number of WriteReq MSHR miss cycles
system.cpu.dcache.WriteReq_mshr_miss_latency::total    466753671                       # number of WriteReq MSHR miss cycles
system.cpu.dcache.WriteReq_mshr_miss_rate::.switch_cpus.data     0.026284                       # mshr miss rate for WriteReq accesses
system.cpu.dcache.WriteReq_mshr_miss_rate::total     0.026284                       # mshr miss rate for WriteReq accesses
system.cpu.dcache.WriteReq_avg_mshr_miss_latency::.switch_cpus.data 43634.072263                       # average WriteReq mshr miss latency
system.cpu.dcache.WriteReq_avg_mshr_miss_latency::total 43634.072263                       # average WriteReq mshr miss latency
system.cpu.dcache.tags.pwrStateResidencyTicks::UNDEFINED 190268987293000                       # Cumulative time (in ticks) in various power states
system.cpu.dcache.tags.tagsinuse             0.637401                       # Cycle average of tags in use
system.cpu.dcache.tags.total_refs            10849721                       # Total number of references to valid blocks.
system.cpu.dcache.tags.sampled_refs           6573856                       # Sample count of references to valid blocks.
system.cpu.dcache.tags.avg_refs              1.650435                       # Average number of references to valid blocks.
system.cpu.dcache.tags.warmup_cycle      190150534270000                       # Cycle when the warmup percentage was hit.
system.cpu.dcache.tags.occ_blocks::.cpu.data     0.000000                       # Average occupied blocks per requestor
system.cpu.dcache.tags.occ_blocks::.switch_cpus.data     0.637401                       # Average occupied blocks per requestor
system.cpu.dcache.tags.occ_percent::.cpu.data     0.000000                       # Average percentage of cache occupancy
system.cpu.dcache.tags.occ_percent::.switch_cpus.data     0.000622                       # Average percentage of cache occupancy
system.cpu.dcache.tags.occ_percent::total     0.000622                       # Average percentage of cache occupancy
system.cpu.dcache.tags.occ_task_id_blocks::1024         1024                       # Occupied blocks per task id
system.cpu.dcache.tags.age_task_id_blocks_1024::0          495                       # Occupied blocks per task id
system.cpu.dcache.tags.age_task_id_blocks_1024::1          528                       # Occupied blocks per task id
system.cpu.dcache.tags.age_task_id_blocks_1024::2            1                       # Occupied blocks per task id
system.cpu.dcache.tags.occ_task_id_percent::1024            1                       # Percentage of cache occupancy per task id
system.cpu.dcache.tags.tag_accesses          42231276                       # Number of tag accesses
system.cpu.dcache.tags.data_accesses         42231276                       # Number of data accesses

---------- End Simulation Statistics   ----------
