
---------- Begin Simulation Statistics ----------
final_tick                               560748719599500                       # Number of ticks from beginning of simulation (restored from checkpoints and never reset)
host_inst_rate                                 565059                       # Simulator instruction rate (inst/s)
host_mem_usage                                 877700                       # Number of bytes of host memory used
host_op_rate                                  1270086                       # Simulator op (including micro ops) rate (op/s)
host_seconds                                    17.70                       # Real time elapsed on the host
host_tick_rate                              830181651                       # Simulator tick rate (ticks/s)
sim_freq                                 1000000000000                       # Frequency of simulated ticks
sim_insts                                    10000001                       # Number of instructions simulated
sim_ops                                      22477325                       # Number of ops (including micro ops) simulated
sim_seconds                                  0.014692                       # Number of seconds simulated
sim_ticks                                 14692149500                       # Number of ticks simulated
system.cpu.branchPred.BTBCorrect                    0                       # Number of correct BTB predictions (this stat may not work properly.
system.cpu.branchPred.BTBHitPct                   nan                       # BTB Hit Percentage
system.cpu.branchPred.BTBHits                       0                       # Number of BTB hits
system.cpu.branchPred.BTBLookups                    0                       # Number of BTB lookups
system.cpu.branchPred.RASInCorrect                  0                       # Number of incorrect RAS predictions.
system.cpu.branchPred.condIncorrect                 0                       # Number of conditional branches incorrect
system.cpu.branchPred.condPredicted                 0                       # Number of conditional branches predicted
system.cpu.branchPred.indirectHits                  0                       # Number of indirect target hits.
system.cpu.branchPred.indirectLookups               0                       # Number of indirect predictor lookups.
system.cpu.branchPred.indirectMisses                0                       # Number of indirect misses.
system.cpu.branchPred.lookups                       0                       # Number of BP lookups
system.cpu.branchPred.usedRAS                       0                       # Number of times the RAS was used to get a target.
system.cpu.branchPredindirectMispredicted            0                       # Number of mispredicted indirect branches.
system.cpu.cc_regfile_reads                         5                       # number of cc regfile reads
system.cpu.commit.amos                              0                       # Number of atomic instructions committed
system.cpu.commit.branches                          0                       # Number of branches committed
system.cpu.commit.bw_lim_events                     0                       # number cycles where commit BW limit reached
system.cpu.commit.commitSquashedInsts               4                       # The number of squashed insts skipped by commit
system.cpu.commit.committedInsts                    1                       # Number of instructions committed
system.cpu.commit.committedOps                      2                       # Number of ops (including micro ops) committed
system.cpu.commit.committed_per_cycle::samples           32                       # Number of insts commited each cycle
system.cpu.commit.committed_per_cycle::mean     0.062500                       # Number of insts commited each cycle
system.cpu.commit.committed_per_cycle::stdev     0.353553                       # Number of insts commited each cycle
system.cpu.commit.committed_per_cycle::underflows            0      0.00%      0.00% # Number of insts commited each cycle
system.cpu.commit.committed_per_cycle::0           31     96.88%     96.88% # Number of insts commited each cycle
system.cpu.commit.committed_per_cycle::1            0      0.00%     96.88% # Number of insts commited each cycle
system.cpu.commit.committed_per_cycle::2            1      3.12%    100.00% # Number of insts commited each cycle
system.cpu.commit.committed_per_cycle::3            0      0.00%    100.00% # Number of insts commited each cycle
system.cpu.commit.committed_per_cycle::4            0      0.00%    100.00% # Number of insts commited each cycle
system.cpu.commit.committed_per_cycle::5            0      0.00%    100.00% # Number of insts commited each cycle
system.cpu.commit.committed_per_cycle::6            0      0.00%    100.00% # Number of insts commited each cycle
system.cpu.commit.committed_per_cycle::7            0      0.00%    100.00% # Number of insts commited each cycle
system.cpu.commit.committed_per_cycle::8            0      0.00%    100.00% # Number of insts commited each cycle
system.cpu.commit.committed_per_cycle::overflows            0      0.00%    100.00% # Number of insts commited each cycle
system.cpu.commit.committed_per_cycle::min_value            0                       # Number of insts commited each cycle
system.cpu.commit.committed_per_cycle::max_value            2                       # Number of insts commited each cycle
system.cpu.commit.committed_per_cycle::total           32                       # Number of insts commited each cycle
system.cpu.commit.fp_insts                          2                       # Number of committed floating point instructions.
system.cpu.commit.function_calls                    0                       # Number of function calls committed.
system.cpu.commit.int_insts                         0                       # Number of committed integer instructions.
system.cpu.commit.loads                             0                       # Number of loads committed
system.cpu.commit.membars                           0                       # Number of memory barriers committed
system.cpu.commit.op_class_0::No_OpClass            0      0.00%      0.00% # Class of committed instruction
system.cpu.commit.op_class_0::IntAlu                0      0.00%      0.00% # Class of committed instruction
system.cpu.commit.op_class_0::IntMult               0      0.00%      0.00% # Class of committed instruction
system.cpu.commit.op_class_0::IntDiv                0      0.00%      0.00% # Class of committed instruction
system.cpu.commit.op_class_0::FloatAdd              0      0.00%      0.00% # Class of committed instruction
system.cpu.commit.op_class_0::FloatCmp              0      0.00%      0.00% # Class of committed instruction
system.cpu.commit.op_class_0::FloatCvt              0      0.00%      0.00% # Class of committed instruction
system.cpu.commit.op_class_0::FloatMult             0      0.00%      0.00% # Class of committed instruction
system.cpu.commit.op_class_0::FloatMultAcc            0      0.00%      0.00% # Class of committed instruction
system.cpu.commit.op_class_0::FloatDiv              0      0.00%      0.00% # Class of committed instruction
system.cpu.commit.op_class_0::FloatMisc             0      0.00%      0.00% # Class of committed instruction
system.cpu.commit.op_class_0::FloatSqrt             0      0.00%      0.00% # Class of committed instruction
system.cpu.commit.op_class_0::SimdAdd               0      0.00%      0.00% # Class of committed instruction
system.cpu.commit.op_class_0::SimdAddAcc            0      0.00%      0.00% # Class of committed instruction
system.cpu.commit.op_class_0::SimdAlu               0      0.00%      0.00% # Class of committed instruction
system.cpu.commit.op_class_0::SimdCmp               0      0.00%      0.00% # Class of committed instruction
system.cpu.commit.op_class_0::SimdCvt               0      0.00%      0.00% # Class of committed instruction
system.cpu.commit.op_class_0::SimdMisc              0      0.00%      0.00% # Class of committed instruction
system.cpu.commit.op_class_0::SimdMult              0      0.00%      0.00% # Class of committed instruction
system.cpu.commit.op_class_0::SimdMultAcc            0      0.00%      0.00% # Class of committed instruction
system.cpu.commit.op_class_0::SimdShift             0      0.00%      0.00% # Class of committed instruction
system.cpu.commit.op_class_0::SimdShiftAcc            0      0.00%      0.00% # Class of committed instruction
system.cpu.commit.op_class_0::SimdDiv               0      0.00%      0.00% # Class of committed instruction
system.cpu.commit.op_class_0::SimdSqrt              0      0.00%      0.00% # Class of committed instruction
system.cpu.commit.op_class_0::SimdFloatAdd            0      0.00%      0.00% # Class of committed instruction
system.cpu.commit.op_class_0::SimdFloatAlu            0      0.00%      0.00% # Class of committed instruction
system.cpu.commit.op_class_0::SimdFloatCmp            0      0.00%      0.00% # Class of committed instruction
system.cpu.commit.op_class_0::SimdFloatCvt            0      0.00%      0.00% # Class of committed instruction
system.cpu.commit.op_class_0::SimdFloatDiv            0      0.00%      0.00% # Class of committed instruction
system.cpu.commit.op_class_0::SimdFloatMisc            0      0.00%      0.00% # Class of committed instruction
system.cpu.commit.op_class_0::SimdFloatMult            2    100.00%    100.00% # Class of committed instruction
system.cpu.commit.op_class_0::SimdFloatMultAcc            0      0.00%    100.00% # Class of committed instruction
system.cpu.commit.op_class_0::SimdFloatSqrt            0      0.00%    100.00% # Class of committed instruction
system.cpu.commit.op_class_0::SimdReduceAdd            0      0.00%    100.00% # Class of committed instruction
system.cpu.commit.op_class_0::SimdReduceAlu            0      0.00%    100.00% # Class of committed instruction
system.cpu.commit.op_class_0::SimdReduceCmp            0      0.00%    100.00% # Class of committed instruction
system.cpu.commit.op_class_0::SimdFloatReduceAdd            0      0.00%    100.00% # Class of committed instruction
system.cpu.commit.op_class_0::SimdFloatReduceCmp            0      0.00%    100.00% # Class of committed instruction
system.cpu.commit.op_class_0::SimdAes               0      0.00%    100.00% # Class of committed instruction
system.cpu.commit.op_class_0::SimdAesMix            0      0.00%    100.00% # Class of committed instruction
system.cpu.commit.op_class_0::SimdSha1Hash            0      0.00%    100.00% # Class of committed instruction
system.cpu.commit.op_class_0::SimdSha1Hash2            0      0.00%    100.00% # Class of committed instruction
system.cpu.commit.op_class_0::SimdSha256Hash            0      0.00%    100.00% # Class of committed instruction
system.cpu.commit.op_class_0::SimdSha256Hash2            0      0.00%    100.00% # Class of committed instruction
system.cpu.commit.op_class_0::SimdShaSigma2            0      0.00%    100.00% # Class of committed instruction
system.cpu.commit.op_class_0::SimdShaSigma3            0      0.00%    100.00% # Class of committed instruction
system.cpu.commit.op_class_0::SimdPredAlu            0      0.00%    100.00% # Class of committed instruction
system.cpu.commit.op_class_0::MemRead               0      0.00%    100.00% # Class of committed instruction
system.cpu.commit.op_class_0::MemWrite              0      0.00%    100.00% # Class of committed instruction
system.cpu.commit.op_class_0::FloatMemRead            0      0.00%    100.00% # Class of committed instruction
system.cpu.commit.op_class_0::FloatMemWrite            0      0.00%    100.00% # Class of committed instruction
system.cpu.commit.op_class_0::IprAccess             0      0.00%    100.00% # Class of committed instruction
system.cpu.commit.op_class_0::InstPrefetch            0      0.00%    100.00% # Class of committed instruction
system.cpu.commit.op_class_0::total                 2                       # Class of committed instruction
system.cpu.commit.refs                              0                       # Number of memory references committed
system.cpu.commit.swp_count                         0                       # Number of s/w prefetches committed
system.cpu.commit.vec_insts                         0                       # Number of committed Vector instructions.
system.cpu.committedInsts                           1                       # Number of Instructions Simulated
system.cpu.committedOps                             2                       # Number of Ops (including micro ops) Simulated
system.cpu.cpi                             187.000000                       # CPI: Cycles Per Instruction
system.cpu.cpi_total                       187.000000                       # CPI: Total CPI of All Threads
system.cpu.decode.DecodedInsts                      6                       # Number of instructions handled by decode
system.cpu.decode.IdleCycles                       31                       # Number of cycles decode is idle
system.cpu.decode.SquashCycles                      1                       # Number of cycles decode is squashing
system.cpu.dtb.rdAccesses                           2                       # TLB accesses on read requests
system.cpu.dtb.rdMisses                             0                       # TLB misses on read requests
system.cpu.dtb.wrAccesses                           0                       # TLB accesses on write requests
system.cpu.dtb.wrMisses                             0                       # TLB misses on write requests
system.cpu.fetch.CacheLines                         2                       # Number of cache lines fetched
system.cpu.fetch.Cycles                             1                       # Number of cycles fetch has run and was not squashing or blocked
system.cpu.fetch.IcacheSquashes                     1                       # Number of outstanding Icache misses that were squashed
system.cpu.fetch.Insts                              3                       # Number of instructions fetch has processed
system.cpu.fetch.PendingDrainCycles                 3                       # Number of cycles fetch has spent waiting on pipes to drain
system.cpu.fetch.SquashCycles                       1                       # Number of cycles fetch has spent squashing
system.cpu.fetch.branchRate                         0                       # Number of branch fetches per cycle
system.cpu.fetch.icacheStallCycles                 29                       # Number of cycles fetch is stalled on an Icache miss
system.cpu.fetch.rate                        0.016043                       # Number of inst fetches per cycle
system.cpu.fetch.rateDist::samples                 33                       # Number of instructions fetched each cycle (Total)
system.cpu.fetch.rateDist::mean              0.181818                       # Number of instructions fetched each cycle (Total)
system.cpu.fetch.rateDist::stdev             1.044466                       # Number of instructions fetched each cycle (Total)
system.cpu.fetch.rateDist::underflows               0      0.00%      0.00% # Number of instructions fetched each cycle (Total)
system.cpu.fetch.rateDist::0                       32     96.97%     96.97% # Number of instructions fetched each cycle (Total)
system.cpu.fetch.rateDist::1                        0      0.00%     96.97% # Number of instructions fetched each cycle (Total)
system.cpu.fetch.rateDist::2                        0      0.00%     96.97% # Number of instructions fetched each cycle (Total)
system.cpu.fetch.rateDist::3                        0      0.00%     96.97% # Number of instructions fetched each cycle (Total)
system.cpu.fetch.rateDist::4                        0      0.00%     96.97% # Number of instructions fetched each cycle (Total)
system.cpu.fetch.rateDist::5                        0      0.00%     96.97% # Number of instructions fetched each cycle (Total)
system.cpu.fetch.rateDist::6                        1      3.03%    100.00% # Number of instructions fetched each cycle (Total)
system.cpu.fetch.rateDist::7                        0      0.00%    100.00% # Number of instructions fetched each cycle (Total)
system.cpu.fetch.rateDist::8                        0      0.00%    100.00% # Number of instructions fetched each cycle (Total)
system.cpu.fetch.rateDist::overflows                0      0.00%    100.00% # Number of instructions fetched each cycle (Total)
system.cpu.fetch.rateDist::min_value                0                       # Number of instructions fetched each cycle (Total)
system.cpu.fetch.rateDist::max_value                6                       # Number of instructions fetched each cycle (Total)
system.cpu.fetch.rateDist::total                   33                       # Number of instructions fetched each cycle (Total)
system.cpu.fp_regfile_reads                        62                       # number of floating regfile reads
system.cpu.fp_regfile_writes                        2                       # number of floating regfile writes
system.cpu.idleCycles                             154                       # Total number of cycles that the CPU has spent unscheduled due to idling
system.cpu.iew.branchMispredicts                    0                       # Number of branch mispredicts detected at execute
system.cpu.iew.exec_branches                        0                       # Number of branches executed
system.cpu.iew.exec_nop                             0                       # number of nop insts executed
system.cpu.iew.exec_rate                     0.021390                       # Inst execution rate
system.cpu.iew.exec_refs                            2                       # number of memory reference insts executed
system.cpu.iew.exec_stores                          0                       # Number of stores executed
system.cpu.iew.exec_swp                             0                       # number of swp insts executed
system.cpu.iew.iewBlockCycles                       0                       # Number of cycles IEW is blocking
system.cpu.iew.iewDispLoadInsts                     2                       # Number of dispatched load instructions
system.cpu.iew.iewDispNonSpecInsts                  0                       # Number of dispatched non-speculative instructions
system.cpu.iew.iewDispSquashedInsts                 0                       # Number of squashed instructions skipped by dispatch
system.cpu.iew.iewDispStoreInsts                    0                       # Number of dispatched store instructions
system.cpu.iew.iewDispatchedInsts                   6                       # Number of instructions dispatched to IQ
system.cpu.iew.iewExecLoadInsts                     2                       # Number of load instructions executed
system.cpu.iew.iewExecSquashedInsts                 0                       # Number of squashed instructions skipped in execute
system.cpu.iew.iewExecutedInsts                     4                       # Number of executed instructions
system.cpu.iew.iewIQFullEvents                      0                       # Number of times the IQ has become full, causing a stall
system.cpu.iew.iewIdleCycles                        0                       # Number of cycles IEW is idle
system.cpu.iew.iewLSQFullEvents                     0                       # Number of times the LSQ has become full, causing a stall
system.cpu.iew.iewSquashCycles                      1                       # Number of cycles IEW is squashing
system.cpu.iew.iewUnblockCycles                     0                       # Number of cycles IEW is unblocking
system.cpu.iew.lsq.thread0.blockedLoads             0                       # Number of blocked loads due to partial load-store forwarding
system.cpu.iew.lsq.thread0.cacheBlocked             0                       # Number of times an access to memory failed due to the cache being blocked
system.cpu.iew.lsq.thread0.forwLoads                0                       # Number of loads that had data forwarded from stores
system.cpu.iew.lsq.thread0.ignoredResponses            0                       # Number of memory responses ignored because the instruction is squashed
system.cpu.iew.lsq.thread0.invAddrLoads             0                       # Number of loads ignored due to an invalid address
system.cpu.iew.lsq.thread0.invAddrSwpfs             0                       # Number of software prefetches ignored due to an invalid address
system.cpu.iew.lsq.thread0.memOrderViolation            0                       # Number of memory ordering violations
system.cpu.iew.lsq.thread0.rescheduledLoads            0                       # Number of loads that were rescheduled
system.cpu.iew.lsq.thread0.squashedLoads            2                       # Number of loads squashed
system.cpu.iew.lsq.thread0.squashedStores            0                       # Number of stores squashed
system.cpu.iew.memOrderViolationEvents              0                       # Number of memory order violations
system.cpu.iew.predictedNotTakenIncorrect            0                       # Number of branches that were predicted not taken incorrectly
system.cpu.iew.predictedTakenIncorrect              0                       # Number of branches that were predicted taken incorrectly
system.cpu.iew.wb_consumers                         0                       # num instructions consuming a value
system.cpu.iew.wb_count                             2                       # cumulative count of insts written-back
system.cpu.iew.wb_fanout                          nan                       # average fanout of values written-back
system.cpu.iew.wb_producers                         0                       # num instructions producing a value
system.cpu.iew.wb_rate                       0.010695                       # insts written-back per cycle
system.cpu.iew.wb_sent                              2                       # cumulative count of insts sent to commit
system.cpu.int_regfile_reads                       42                       # number of integer regfile reads
system.cpu.ipc                               0.005348                       # IPC: Instructions Per Cycle
system.cpu.ipc_total                         0.005348                       # IPC: Total IPC of All Threads
system.cpu.iq.FU_type_0::No_OpClass                 0      0.00%      0.00% # Type of FU issued
system.cpu.iq.FU_type_0::IntAlu                     0      0.00%      0.00% # Type of FU issued
system.cpu.iq.FU_type_0::IntMult                    0      0.00%      0.00% # Type of FU issued
system.cpu.iq.FU_type_0::IntDiv                     0      0.00%      0.00% # Type of FU issued
system.cpu.iq.FU_type_0::FloatAdd                   0      0.00%      0.00% # Type of FU issued
system.cpu.iq.FU_type_0::FloatCmp                   0      0.00%      0.00% # Type of FU issued
system.cpu.iq.FU_type_0::FloatCvt                   0      0.00%      0.00% # Type of FU issued
system.cpu.iq.FU_type_0::FloatMult                  0      0.00%      0.00% # Type of FU issued
system.cpu.iq.FU_type_0::FloatMultAcc               0      0.00%      0.00% # Type of FU issued
system.cpu.iq.FU_type_0::FloatDiv                   0      0.00%      0.00% # Type of FU issued
system.cpu.iq.FU_type_0::FloatMisc                  0      0.00%      0.00% # Type of FU issued
system.cpu.iq.FU_type_0::FloatSqrt                  0      0.00%      0.00% # Type of FU issued
system.cpu.iq.FU_type_0::SimdAdd                    0      0.00%      0.00% # Type of FU issued
system.cpu.iq.FU_type_0::SimdAddAcc                 0      0.00%      0.00% # Type of FU issued
system.cpu.iq.FU_type_0::SimdAlu                    0      0.00%      0.00% # Type of FU issued
system.cpu.iq.FU_type_0::SimdCmp                    0      0.00%      0.00% # Type of FU issued
system.cpu.iq.FU_type_0::SimdCvt                    0      0.00%      0.00% # Type of FU issued
system.cpu.iq.FU_type_0::SimdMisc                   0      0.00%      0.00% # Type of FU issued
system.cpu.iq.FU_type_0::SimdMult                   0      0.00%      0.00% # Type of FU issued
system.cpu.iq.FU_type_0::SimdMultAcc                0      0.00%      0.00% # Type of FU issued
system.cpu.iq.FU_type_0::SimdShift                  0      0.00%      0.00% # Type of FU issued
system.cpu.iq.FU_type_0::SimdShiftAcc               0      0.00%      0.00% # Type of FU issued
system.cpu.iq.FU_type_0::SimdDiv                    0      0.00%      0.00% # Type of FU issued
system.cpu.iq.FU_type_0::SimdSqrt                   0      0.00%      0.00% # Type of FU issued
system.cpu.iq.FU_type_0::SimdFloatAdd               0      0.00%      0.00% # Type of FU issued
system.cpu.iq.FU_type_0::SimdFloatAlu               0      0.00%      0.00% # Type of FU issued
system.cpu.iq.FU_type_0::SimdFloatCmp               0      0.00%      0.00% # Type of FU issued
system.cpu.iq.FU_type_0::SimdFloatCvt               0      0.00%      0.00% # Type of FU issued
system.cpu.iq.FU_type_0::SimdFloatDiv               0      0.00%      0.00% # Type of FU issued
system.cpu.iq.FU_type_0::SimdFloatMisc              0      0.00%      0.00% # Type of FU issued
system.cpu.iq.FU_type_0::SimdFloatMult              2     50.00%     50.00% # Type of FU issued
system.cpu.iq.FU_type_0::SimdFloatMultAcc            0      0.00%     50.00% # Type of FU issued
system.cpu.iq.FU_type_0::SimdFloatSqrt              0      0.00%     50.00% # Type of FU issued
system.cpu.iq.FU_type_0::SimdReduceAdd              0      0.00%     50.00% # Type of FU issued
system.cpu.iq.FU_type_0::SimdReduceAlu              0      0.00%     50.00% # Type of FU issued
system.cpu.iq.FU_type_0::SimdReduceCmp              0      0.00%     50.00% # Type of FU issued
system.cpu.iq.FU_type_0::SimdFloatReduceAdd            0      0.00%     50.00% # Type of FU issued
system.cpu.iq.FU_type_0::SimdFloatReduceCmp            0      0.00%     50.00% # Type of FU issued
system.cpu.iq.FU_type_0::SimdAes                    0      0.00%     50.00% # Type of FU issued
system.cpu.iq.FU_type_0::SimdAesMix                 0      0.00%     50.00% # Type of FU issued
system.cpu.iq.FU_type_0::SimdSha1Hash               0      0.00%     50.00% # Type of FU issued
system.cpu.iq.FU_type_0::SimdSha1Hash2              0      0.00%     50.00% # Type of FU issued
system.cpu.iq.FU_type_0::SimdSha256Hash             0      0.00%     50.00% # Type of FU issued
system.cpu.iq.FU_type_0::SimdSha256Hash2            0      0.00%     50.00% # Type of FU issued
system.cpu.iq.FU_type_0::SimdShaSigma2              0      0.00%     50.00% # Type of FU issued
system.cpu.iq.FU_type_0::SimdShaSigma3              0      0.00%     50.00% # Type of FU issued
system.cpu.iq.FU_type_0::SimdPredAlu                0      0.00%     50.00% # Type of FU issued
system.cpu.iq.FU_type_0::MemRead                    0      0.00%     50.00% # Type of FU issued
system.cpu.iq.FU_type_0::MemWrite                   0      0.00%     50.00% # Type of FU issued
system.cpu.iq.FU_type_0::FloatMemRead               2     50.00%    100.00% # Type of FU issued
system.cpu.iq.FU_type_0::FloatMemWrite              0      0.00%    100.00% # Type of FU issued
system.cpu.iq.FU_type_0::IprAccess                  0      0.00%    100.00% # Type of FU issued
system.cpu.iq.FU_type_0::InstPrefetch               0      0.00%    100.00% # Type of FU issued
system.cpu.iq.FU_type_0::total                      4                       # Type of FU issued
system.cpu.iq.fp_alu_accesses                       4                       # Number of floating point alu accesses
system.cpu.iq.fp_inst_queue_reads                   8                       # Number of floating instruction queue reads
system.cpu.iq.fp_inst_queue_wakeup_accesses            2                       # Number of floating instruction queue wakeup accesses
system.cpu.iq.fp_inst_queue_writes                 10                       # Number of floating instruction queue writes
system.cpu.iq.fu_busy_cnt                           0                       # FU busy when requested
system.cpu.iq.fu_busy_rate                          0                       # FU busy rate (busy events/executed inst)
system.cpu.iq.fu_full::No_OpClass                   0                       # attempts to use FU when none available
system.cpu.iq.fu_full::IntAlu                       0                       # attempts to use FU when none available
system.cpu.iq.fu_full::IntMult                      0                       # attempts to use FU when none available
system.cpu.iq.fu_full::IntDiv                       0                       # attempts to use FU when none available
system.cpu.iq.fu_full::FloatAdd                     0                       # attempts to use FU when none available
system.cpu.iq.fu_full::FloatCmp                     0                       # attempts to use FU when none available
system.cpu.iq.fu_full::FloatCvt                     0                       # attempts to use FU when none available
system.cpu.iq.fu_full::FloatMult                    0                       # attempts to use FU when none available
system.cpu.iq.fu_full::FloatMultAcc                 0                       # attempts to use FU when none available
system.cpu.iq.fu_full::FloatDiv                     0                       # attempts to use FU when none available
system.cpu.iq.fu_full::FloatMisc                    0                       # attempts to use FU when none available
system.cpu.iq.fu_full::FloatSqrt                    0                       # attempts to use FU when none available
system.cpu.iq.fu_full::SimdAdd                      0                       # attempts to use FU when none available
system.cpu.iq.fu_full::SimdAddAcc                   0                       # attempts to use FU when none available
system.cpu.iq.fu_full::SimdAlu                      0                       # attempts to use FU when none available
system.cpu.iq.fu_full::SimdCmp                      0                       # attempts to use FU when none available
system.cpu.iq.fu_full::SimdCvt                      0                       # attempts to use FU when none available
system.cpu.iq.fu_full::SimdMisc                     0                       # attempts to use FU when none available
system.cpu.iq.fu_full::SimdMult                     0                       # attempts to use FU when none available
system.cpu.iq.fu_full::SimdMultAcc                  0                       # attempts to use FU when none available
system.cpu.iq.fu_full::SimdShift                    0                       # attempts to use FU when none available
system.cpu.iq.fu_full::SimdShiftAcc                 0                       # attempts to use FU when none available
system.cpu.iq.fu_full::SimdDiv                      0                       # attempts to use FU when none available
system.cpu.iq.fu_full::SimdSqrt                     0                       # attempts to use FU when none available
system.cpu.iq.fu_full::SimdFloatAdd                 0                       # attempts to use FU when none available
system.cpu.iq.fu_full::SimdFloatAlu                 0                       # attempts to use FU when none available
system.cpu.iq.fu_full::SimdFloatCmp                 0                       # attempts to use FU when none available
system.cpu.iq.fu_full::SimdFloatCvt                 0                       # attempts to use FU when none available
system.cpu.iq.fu_full::SimdFloatDiv                 0                       # attempts to use FU when none available
system.cpu.iq.fu_full::SimdFloatMisc                0                       # attempts to use FU when none available
system.cpu.iq.fu_full::SimdFloatMult                0                       # attempts to use FU when none available
system.cpu.iq.fu_full::SimdFloatMultAcc             0                       # attempts to use FU when none available
system.cpu.iq.fu_full::SimdFloatSqrt                0                       # attempts to use FU when none available
system.cpu.iq.fu_full::SimdReduceAdd                0                       # attempts to use FU when none available
system.cpu.iq.fu_full::SimdReduceAlu                0                       # attempts to use FU when none available
system.cpu.iq.fu_full::SimdReduceCmp                0                       # attempts to use FU when none available
system.cpu.iq.fu_full::SimdFloatReduceAdd            0                       # attempts to use FU when none available
system.cpu.iq.fu_full::SimdFloatReduceCmp            0                       # attempts to use FU when none available
system.cpu.iq.fu_full::SimdAes                      0                       # attempts to use FU when none available
system.cpu.iq.fu_full::SimdAesMix                   0                       # attempts to use FU when none available
system.cpu.iq.fu_full::SimdSha1Hash                 0                       # attempts to use FU when none available
system.cpu.iq.fu_full::SimdSha1Hash2                0                       # attempts to use FU when none available
system.cpu.iq.fu_full::SimdSha256Hash               0                       # attempts to use FU when none available
system.cpu.iq.fu_full::SimdSha256Hash2              0                       # attempts to use FU when none available
system.cpu.iq.fu_full::SimdShaSigma2                0                       # attempts to use FU when none available
system.cpu.iq.fu_full::SimdShaSigma3                0                       # attempts to use FU when none available
system.cpu.iq.fu_full::SimdPredAlu                  0                       # attempts to use FU when none available
system.cpu.iq.fu_full::MemRead                      0                       # attempts to use FU when none available
system.cpu.iq.fu_full::MemWrite                     0                       # attempts to use FU when none available
system.cpu.iq.fu_full::FloatMemRead                 0                       # attempts to use FU when none available
system.cpu.iq.fu_full::FloatMemWrite                0                       # attempts to use FU when none available
system.cpu.iq.fu_full::IprAccess                    0                       # attempts to use FU when none available
system.cpu.iq.fu_full::InstPrefetch                 0                       # attempts to use FU when none available
system.cpu.iq.int_alu_accesses                      0                       # Number of integer alu accesses
system.cpu.iq.int_inst_queue_reads                 33                       # Number of integer instruction queue reads
system.cpu.iq.int_inst_queue_wakeup_accesses            0                       # Number of integer instruction queue wakeup accesses
system.cpu.iq.int_inst_queue_writes                 0                       # Number of integer instruction queue writes
system.cpu.iq.iqInstsAdded                          6                       # Number of instructions added to the IQ (excludes non-spec)
system.cpu.iq.iqInstsIssued                         4                       # Number of instructions issued
system.cpu.iq.iqSquashedInstsExamined               4                       # Number of squashed instructions iterated over during squash; mainly for profiling
system.cpu.iq.iqSquashedOperandsExamined           12                       # Number of squashed operands that are examined and possibly removed from graph
system.cpu.iq.issued_per_cycle::samples            33                       # Number of insts issued each cycle
system.cpu.iq.issued_per_cycle::mean         0.121212                       # Number of insts issued each cycle
system.cpu.iq.issued_per_cycle::stdev        0.696311                       # Number of insts issued each cycle
system.cpu.iq.issued_per_cycle::underflows            0      0.00%      0.00% # Number of insts issued each cycle
system.cpu.iq.issued_per_cycle::0                  32     96.97%     96.97% # Number of insts issued each cycle
system.cpu.iq.issued_per_cycle::1                   0      0.00%     96.97% # Number of insts issued each cycle
system.cpu.iq.issued_per_cycle::2                   0      0.00%     96.97% # Number of insts issued each cycle
system.cpu.iq.issued_per_cycle::3                   0      0.00%     96.97% # Number of insts issued each cycle
system.cpu.iq.issued_per_cycle::4                   1      3.03%    100.00% # Number of insts issued each cycle
system.cpu.iq.issued_per_cycle::5                   0      0.00%    100.00% # Number of insts issued each cycle
system.cpu.iq.issued_per_cycle::6                   0      0.00%    100.00% # Number of insts issued each cycle
system.cpu.iq.issued_per_cycle::7                   0      0.00%    100.00% # Number of insts issued each cycle
system.cpu.iq.issued_per_cycle::8                   0      0.00%    100.00% # Number of insts issued each cycle
system.cpu.iq.issued_per_cycle::overflows            0      0.00%    100.00% # Number of insts issued each cycle
system.cpu.iq.issued_per_cycle::min_value            0                       # Number of insts issued each cycle
system.cpu.iq.issued_per_cycle::max_value            4                       # Number of insts issued each cycle
system.cpu.iq.issued_per_cycle::total              33                       # Number of insts issued each cycle
system.cpu.iq.rate                           0.021390                       # Inst issue rate
system.cpu.iq.vec_alu_accesses                      0                       # Number of vector alu accesses
system.cpu.iq.vec_inst_queue_reads                  0                       # Number of vector instruction queue reads
system.cpu.iq.vec_inst_queue_wakeup_accesses            0                       # Number of vector instruction queue wakeup accesses
system.cpu.iq.vec_inst_queue_writes                 0                       # Number of vector instruction queue writes
system.cpu.itb.rdAccesses                           0                       # TLB accesses on read requests
system.cpu.itb.rdMisses                             0                       # TLB misses on read requests
system.cpu.itb.wrAccesses                           2                       # TLB accesses on write requests
system.cpu.itb.wrMisses                             0                       # TLB misses on write requests
system.cpu.memDep0.conflictingLoads                 0                       # Number of conflicting loads.
system.cpu.memDep0.conflictingStores                0                       # Number of conflicting stores.
system.cpu.memDep0.insertedLoads                    2                       # Number of loads inserted to the mem dependence unit.
system.cpu.memDep0.insertedStores                   0                       # Number of stores inserted to the mem dependence unit.
system.cpu.misc_regfile_reads                       3                       # number of misc regfile reads
system.cpu.numCycles                              187                       # number of cpu cycles simulated
system.cpu.numWorkItemsCompleted                    0                       # number of work items this cpu completed
system.cpu.numWorkItemsStarted                      0                       # number of work items this cpu started
system.cpu.rename.CommittedMaps                     2                       # Number of HB maps that are committed
system.cpu.rename.IdleCycles                       31                       # Number of cycles rename is idle
system.cpu.rename.RenameLookups                    18                       # Number of register rename lookups that rename has made
system.cpu.rename.RenamedInsts                      6                       # Number of instructions processed by rename
system.cpu.rename.RenamedOperands                   6                       # Number of destination operands rename has renamed
system.cpu.rename.RunCycles                         0                       # Number of cycles rename is running
system.cpu.rename.SquashCycles                      1                       # Number of cycles rename is squashing
system.cpu.rename.UndoneMaps                        4                       # Number of HB maps that are undone due to squashing
system.cpu.rename.fp_rename_lookups                12                       # Number of floating rename lookups
system.cpu.rename.int_rename_lookups                4                       # Number of integer rename lookups
system.cpu.rename.serializeStallCycles              0                       # count of cycles rename stalled for serializing inst
system.cpu.rename.serializingInsts                  0                       # count of serializing insts renamed
system.cpu.rename.skidInsts                         0                       # count of insts added to the skid buffer
system.cpu.rename.tempSerializingInsts              0                       # count of temporary serializing insts renamed
system.cpu.rob.rob_reads                           37                       # The number of ROB reads
system.cpu.rob.rob_writes                          13                       # The number of ROB writes
system.cpu.timesIdled                               2                       # Number of times that the entire CPU went into an idle state and unscheduled itself
system.cpu.workload.numSyscalls                     0                       # Number of system calls
system.membus.snoop_filter.hit_multi_requests            0                       # Number of requests hitting in the snoop filter with multiple (>1) holders of the requested data.
system.membus.snoop_filter.hit_multi_snoops            0                       # Number of snoops hitting in the snoop filter with multiple (>1) holders of the requested data.
system.membus.snoop_filter.hit_single_requests        91357                       # Number of requests hitting in the snoop filter with a single holder of the requested data.
system.membus.snoop_filter.hit_single_snoops            0                       # Number of snoops hitting in the snoop filter with a single holder of the requested data.
system.membus.snoop_filter.tot_requests        187094                       # Total number of requests made to the snoop filter.
system.membus.snoop_filter.tot_snoops               0                       # Total number of snoops made to the snoop filter.
system.switch_cpus.Branches                     19425                       # Number of branches fetched
system.switch_cpus.committedInsts            10000000                       # Number of instructions committed
system.switch_cpus.committedOps              22477323                       # Number of ops (including micro ops) committed
system.switch_cpus.dtb.rdAccesses             7651124                       # TLB accesses on read requests
system.switch_cpus.dtb.rdMisses                  1491                       # TLB misses on read requests
system.switch_cpus.dtb.wrAccesses             2251603                       # TLB accesses on write requests
system.switch_cpus.dtb.wrMisses                   569                       # TLB misses on write requests
system.switch_cpus.idle_fraction             0.000549                       # Percentage of idle cycles
system.switch_cpus.itb.rdAccesses                   0                       # TLB accesses on read requests
system.switch_cpus.itb.rdMisses                     0                       # TLB misses on read requests
system.switch_cpus.itb.wrAccesses            16890856                       # TLB accesses on write requests
system.switch_cpus.itb.wrMisses                     8                       # TLB misses on write requests
system.switch_cpus.not_idle_fraction         0.999451                       # Percentage of non-idle cycles
system.switch_cpus.numCycles                 29368179                       # number of cpu cycles simulated
system.switch_cpus.numWorkItemsCompleted            0                       # number of work items this cpu completed
system.switch_cpus.numWorkItemsStarted              0                       # number of work items this cpu started
system.switch_cpus.num_busy_cycles       29352067.843309                       # Number of busy cycles
system.switch_cpus.num_cc_register_reads       101346                       # number of times the CC registers were read
system.switch_cpus.num_cc_register_writes       184922                       # number of times the CC registers were written
system.switch_cpus.num_conditional_control_insts        18164                       # number of instructions that are conditional controls
system.switch_cpus.num_fp_alu_accesses       21302738                       # Number of float alu accesses
system.switch_cpus.num_fp_insts              21302738                       # number of float instructions
system.switch_cpus.num_fp_register_reads     35911074                       # number of times the floating registers were read
system.switch_cpus.num_fp_register_writes     19106768                       # number of times the floating registers were written
system.switch_cpus.num_func_calls                 640                       # number of times a function call or return occured
system.switch_cpus.num_idle_cycles       16111.156691                       # Number of idle cycles
system.switch_cpus.num_int_alu_accesses      10363708                       # Number of integer alu accesses
system.switch_cpus.num_int_insts             10363708                       # number of integer instructions
system.switch_cpus.num_int_register_reads     30372154                       # number of times the integer registers were read
system.switch_cpus.num_int_register_writes      1099228                       # number of times the integer registers were written
system.switch_cpus.num_load_insts             7651124                       # Number of load instructions
system.switch_cpus.num_mem_refs               9902727                       # number of memory refs
system.switch_cpus.num_store_insts            2251603                       # Number of store instructions
system.switch_cpus.num_vec_alu_accesses             0                       # Number of vector alu accesses
system.switch_cpus.num_vec_insts                    0                       # number of vector instructions
system.switch_cpus.num_vec_register_reads            0                       # number of times the vector registers were read
system.switch_cpus.num_vec_register_writes            0                       # number of times the vector registers were written
system.switch_cpus.op_class::No_OpClass          5757      0.03%      0.03% # Class of executed instruction
system.switch_cpus.op_class::IntAlu           3034803     13.50%     13.52% # Class of executed instruction
system.switch_cpus.op_class::IntMult              658      0.00%     13.53% # Class of executed instruction
system.switch_cpus.op_class::IntDiv                 0      0.00%     13.53% # Class of executed instruction
system.switch_cpus.op_class::FloatAdd             328      0.00%     13.53% # Class of executed instruction
system.switch_cpus.op_class::FloatCmp               0      0.00%     13.53% # Class of executed instruction
system.switch_cpus.op_class::FloatCvt               0      0.00%     13.53% # Class of executed instruction
system.switch_cpus.op_class::FloatMult              0      0.00%     13.53% # Class of executed instruction
system.switch_cpus.op_class::FloatMultAcc            0      0.00%     13.53% # Class of executed instruction
system.switch_cpus.op_class::FloatDiv               0      0.00%     13.53% # Class of executed instruction
system.switch_cpus.op_class::FloatMisc              0      0.00%     13.53% # Class of executed instruction
system.switch_cpus.op_class::FloatSqrt              0      0.00%     13.53% # Class of executed instruction
system.switch_cpus.op_class::SimdAdd                0      0.00%     13.53% # Class of executed instruction
system.switch_cpus.op_class::SimdAddAcc             0      0.00%     13.53% # Class of executed instruction
system.switch_cpus.op_class::SimdAlu            47726      0.21%     13.74% # Class of executed instruction
system.switch_cpus.op_class::SimdCmp                0      0.00%     13.74% # Class of executed instruction
system.switch_cpus.op_class::SimdCvt                0      0.00%     13.74% # Class of executed instruction
system.switch_cpus.op_class::SimdMisc               0      0.00%     13.74% # Class of executed instruction
system.switch_cpus.op_class::SimdMult               0      0.00%     13.74% # Class of executed instruction
system.switch_cpus.op_class::SimdMultAcc            0      0.00%     13.74% # Class of executed instruction
system.switch_cpus.op_class::SimdShift              0      0.00%     13.74% # Class of executed instruction
system.switch_cpus.op_class::SimdShiftAcc            0      0.00%     13.74% # Class of executed instruction
system.switch_cpus.op_class::SimdDiv                0      0.00%     13.74% # Class of executed instruction
system.switch_cpus.op_class::SimdSqrt               0      0.00%     13.74% # Class of executed instruction
system.switch_cpus.op_class::SimdFloatAdd      5476714     24.36%     38.10% # Class of executed instruction
system.switch_cpus.op_class::SimdFloatAlu            0      0.00%     38.10% # Class of executed instruction
system.switch_cpus.op_class::SimdFloatCmp            0      0.00%     38.10% # Class of executed instruction
system.switch_cpus.op_class::SimdFloatCvt            0      0.00%     38.10% # Class of executed instruction
system.switch_cpus.op_class::SimdFloatDiv        11440      0.05%     38.15% # Class of executed instruction
system.switch_cpus.op_class::SimdFloatMisc            0      0.00%     38.15% # Class of executed instruction
system.switch_cpus.op_class::SimdFloatMult      4002290     17.80%     55.95% # Class of executed instruction
system.switch_cpus.op_class::SimdFloatMultAcc            0      0.00%     55.95% # Class of executed instruction
system.switch_cpus.op_class::SimdFloatSqrt            0      0.00%     55.95% # Class of executed instruction
system.switch_cpus.op_class::SimdReduceAdd            0      0.00%     55.95% # Class of executed instruction
system.switch_cpus.op_class::SimdReduceAlu            0      0.00%     55.95% # Class of executed instruction
system.switch_cpus.op_class::SimdReduceCmp            0      0.00%     55.95% # Class of executed instruction
system.switch_cpus.op_class::SimdFloatReduceAdd            0      0.00%     55.95% # Class of executed instruction
system.switch_cpus.op_class::SimdFloatReduceCmp            0      0.00%     55.95% # Class of executed instruction
system.switch_cpus.op_class::SimdAes                0      0.00%     55.95% # Class of executed instruction
system.switch_cpus.op_class::SimdAesMix             0      0.00%     55.95% # Class of executed instruction
system.switch_cpus.op_class::SimdSha1Hash            0      0.00%     55.95% # Class of executed instruction
system.switch_cpus.op_class::SimdSha1Hash2            0      0.00%     55.95% # Class of executed instruction
system.switch_cpus.op_class::SimdSha256Hash            0      0.00%     55.95% # Class of executed instruction
system.switch_cpus.op_class::SimdSha256Hash2            0      0.00%     55.95% # Class of executed instruction
system.switch_cpus.op_class::SimdShaSigma2            0      0.00%     55.95% # Class of executed instruction
system.switch_cpus.op_class::SimdShaSigma3            0      0.00%     55.95% # Class of executed instruction
system.switch_cpus.op_class::SimdPredAlu            0      0.00%     55.95% # Class of executed instruction
system.switch_cpus.op_class::MemRead           657014      2.92%     58.88% # Class of executed instruction
system.switch_cpus.op_class::MemWrite           55633      0.25%     59.12% # Class of executed instruction
system.switch_cpus.op_class::FloatMemRead      6994110     31.11%     90.23% # Class of executed instruction
system.switch_cpus.op_class::FloatMemWrite      2195970      9.77%    100.00% # Class of executed instruction
system.switch_cpus.op_class::IprAccess              0      0.00%    100.00% # Class of executed instruction
system.switch_cpus.op_class::InstPrefetch            0      0.00%    100.00% # Class of executed instruction
system.switch_cpus.op_class::total           22482443                       # Class of executed instruction
system.tol2bus.snoop_filter.hit_multi_requests            0                       # Number of requests hitting in the snoop filter with multiple (>1) holders of the requested data.
system.tol2bus.snoop_filter.hit_multi_snoops            0                       # Number of snoops hitting in the snoop filter with multiple (>1) holders of the requested data.
system.tol2bus.snoop_filter.hit_single_requests       110769                       # Number of requests hitting in the snoop filter with a single holder of the requested data.
system.tol2bus.snoop_filter.hit_single_snoops          842                       # Number of snoops hitting in the snoop filter with a single holder of the requested data.
system.tol2bus.snoop_filter.tot_requests       222815                       # Total number of requests made to the snoop filter.
system.tol2bus.snoop_filter.tot_snoops            842                       # Total number of snoops made to the snoop filter.
system.membus.pwrStateResidencyTicks::UNDEFINED 560748719599500                       # Cumulative time (in ticks) in various power states
system.membus.trans_dist::ReadResp              68601                       # Transaction distribution
system.membus.trans_dist::WritebackDirty        29269                       # Transaction distribution
system.membus.trans_dist::CleanEvict            62088                       # Transaction distribution
system.membus.trans_dist::ReadExReq             27136                       # Transaction distribution
system.membus.trans_dist::ReadExResp            27136                       # Transaction distribution
system.membus.trans_dist::ReadSharedReq         68601                       # Transaction distribution
system.membus.pkt_count_system.l2.mem_side::system.mem_ctrls.port       282831                       # Packet count per connected master and slave (bytes)
system.membus.pkt_count_system.l2.mem_side::total       282831                       # Packet count per connected master and slave (bytes)
system.membus.pkt_count::total                 282831                       # Packet count per connected master and slave (bytes)
system.membus.pkt_size_system.l2.mem_side::system.mem_ctrls.port      8000384                       # Cumulative packet size per connected master and slave (bytes)
system.membus.pkt_size_system.l2.mem_side::total      8000384                       # Cumulative packet size per connected master and slave (bytes)
system.membus.pkt_size::total                 8000384                       # Cumulative packet size per connected master and slave (bytes)
system.membus.snoops                                0                       # Total snoops (count)
system.membus.snoopTraffic                          0                       # Total snoop traffic (bytes)
system.membus.snoop_fanout::samples             95737                       # Request fanout histogram
system.membus.snoop_fanout::mean                    0                       # Request fanout histogram
system.membus.snoop_fanout::stdev                   0                       # Request fanout histogram
system.membus.snoop_fanout::underflows              0      0.00%      0.00% # Request fanout histogram
system.membus.snoop_fanout::0                   95737    100.00%    100.00% # Request fanout histogram
system.membus.snoop_fanout::1                       0      0.00%    100.00% # Request fanout histogram
system.membus.snoop_fanout::overflows               0      0.00%    100.00% # Request fanout histogram
system.membus.snoop_fanout::min_value               0                       # Request fanout histogram
system.membus.snoop_fanout::max_value               0                       # Request fanout histogram
system.membus.snoop_fanout::total               95737                       # Request fanout histogram
system.membus.reqLayer2.occupancy                3500                       # Layer occupancy (ticks)
system.membus.reqLayer2.utilization               0.0                       # Layer utilization (%)
system.membus.respLayer1.occupancy              16500                       # Layer occupancy (ticks)
system.membus.respLayer1.utilization              0.0                       # Layer utilization (%)
system.switch_cpus.numPwrStateTransitions            1                       # Number of power state transitions
system.switch_cpus.pwrStateResidencyTicks::UNDEFINED 560734027450000                       # Cumulative time (in ticks) in various power states
system.switch_cpus.pwrStateResidencyTicks::OFF  14692149500                       # Cumulative time (in ticks) in various power states
system.switch_cpus.dtb.walker.pwrStateResidencyTicks::UNDEFINED 560748719599500                       # Cumulative time (in ticks) in various power states
system.switch_cpus.itb.walker.pwrStateResidencyTicks::UNDEFINED 560748719599500                       # Cumulative time (in ticks) in various power states
system.tol2bus.pwrStateResidencyTicks::UNDEFINED 560748719599500                       # Cumulative time (in ticks) in various power states
system.tol2bus.trans_dist::ReadResp             81080                       # Transaction distribution
system.tol2bus.trans_dist::WritebackDirty        36313                       # Transaction distribution
system.tol2bus.trans_dist::WritebackClean          108                       # Transaction distribution
system.tol2bus.trans_dist::CleanEvict           74348                       # Transaction distribution
system.tol2bus.trans_dist::ReadExReq            30966                       # Transaction distribution
system.tol2bus.trans_dist::ReadExResp           30966                       # Transaction distribution
system.tol2bus.trans_dist::ReadCleanReq           361                       # Transaction distribution
system.tol2bus.trans_dist::ReadSharedReq        80719                       # Transaction distribution
system.tol2bus.pkt_count_system.cpu.icache.mem_side::system.l2.cpu_side          830                       # Packet count per connected master and slave (bytes)
system.tol2bus.pkt_count_system.cpu.dcache.mem_side::system.l2.cpu_side       334031                       # Packet count per connected master and slave (bytes)
system.tol2bus.pkt_count::total                334861                       # Packet count per connected master and slave (bytes)
system.tol2bus.pkt_size_system.cpu.icache.mem_side::system.l2.cpu_side        30016                       # Cumulative packet size per connected master and slave (bytes)
system.tol2bus.pkt_size_system.cpu.dcache.mem_side::system.l2.cpu_side      9471872                       # Cumulative packet size per connected master and slave (bytes)
system.tol2bus.pkt_size::total                9501888                       # Cumulative packet size per connected master and slave (bytes)
system.tol2bus.snoops                           92163                       # Total snoops (count)
system.tol2bus.snoopTraffic                   1873216                       # Total snoop traffic (bytes)
system.tol2bus.snoop_fanout::samples           204209                       # Request fanout histogram
system.tol2bus.snoop_fanout::mean            0.004123                       # Request fanout histogram
system.tol2bus.snoop_fanout::stdev           0.064080                       # Request fanout histogram
system.tol2bus.snoop_fanout::underflows             0      0.00%      0.00% # Request fanout histogram
system.tol2bus.snoop_fanout::0                 203367     99.59%     99.59% # Request fanout histogram
system.tol2bus.snoop_fanout::1                    842      0.41%    100.00% # Request fanout histogram
system.tol2bus.snoop_fanout::2                      0      0.00%    100.00% # Request fanout histogram
system.tol2bus.snoop_fanout::3                      0      0.00%    100.00% # Request fanout histogram
system.tol2bus.snoop_fanout::4                      0      0.00%    100.00% # Request fanout histogram
system.tol2bus.snoop_fanout::overflows              0      0.00%    100.00% # Request fanout histogram
system.tol2bus.snoop_fanout::min_value              0                       # Request fanout histogram
system.tol2bus.snoop_fanout::max_value              1                       # Request fanout histogram
system.tol2bus.snoop_fanout::total             204209                       # Request fanout histogram
system.tol2bus.reqLayer0.occupancy               1500                       # Layer occupancy (ticks)
system.tol2bus.reqLayer0.utilization              0.0                       # Layer utilization (%)
system.tol2bus.respLayer1.occupancy              1500                       # Layer occupancy (ticks)
system.tol2bus.respLayer1.utilization             0.0                       # Layer utilization (%)
system.tol2bus.respLayer0.occupancy              3000                       # Layer occupancy (ticks)
system.tol2bus.respLayer0.utilization             0.0                       # Layer utilization (%)
system.voltage_domain.voltage                       1                       # Voltage in Volts
system.clk_domain.clock                          1000                       # Clock period in ticks
system.l2.pwrStateResidencyTicks::UNDEFINED 560748719599500                       # Cumulative time (in ticks) in various power states
system.l2.demand_hits::.switch_cpus.inst           34                       # number of demand (read+write) hits
system.l2.demand_hits::.switch_cpus.data        16275                       # number of demand (read+write) hits
system.l2.demand_hits::total                    16309                       # number of demand (read+write) hits
system.l2.overall_hits::.switch_cpus.inst           34                       # number of overall hits
system.l2.overall_hits::.switch_cpus.data        16275                       # number of overall hits
system.l2.overall_hits::total                   16309                       # number of overall hits
system.l2.demand_misses::.cpu.inst                  2                       # number of demand (read+write) misses
system.l2.demand_misses::.cpu.data                  1                       # number of demand (read+write) misses
system.l2.demand_misses::.switch_cpus.inst          325                       # number of demand (read+write) misses
system.l2.demand_misses::.switch_cpus.data        95409                       # number of demand (read+write) misses
system.l2.demand_misses::total                  95737                       # number of demand (read+write) misses
system.l2.overall_misses::.cpu.inst                 2                       # number of overall misses
system.l2.overall_misses::.cpu.data                 1                       # number of overall misses
system.l2.overall_misses::.switch_cpus.inst          325                       # number of overall misses
system.l2.overall_misses::.switch_cpus.data        95409                       # number of overall misses
system.l2.overall_misses::total                 95737                       # number of overall misses
system.l2.demand_miss_latency::.cpu.inst       155000                       # number of demand (read+write) miss cycles
system.l2.demand_miss_latency::.cpu.data        84000                       # number of demand (read+write) miss cycles
system.l2.demand_miss_latency::total           239000                       # number of demand (read+write) miss cycles
system.l2.overall_miss_latency::.cpu.inst       155000                       # number of overall miss cycles
system.l2.overall_miss_latency::.cpu.data        84000                       # number of overall miss cycles
system.l2.overall_miss_latency::total          239000                       # number of overall miss cycles
system.l2.demand_accesses::.cpu.inst                2                       # number of demand (read+write) accesses
system.l2.demand_accesses::.cpu.data                1                       # number of demand (read+write) accesses
system.l2.demand_accesses::.switch_cpus.inst          359                       # number of demand (read+write) accesses
system.l2.demand_accesses::.switch_cpus.data       111684                       # number of demand (read+write) accesses
system.l2.demand_accesses::total               112046                       # number of demand (read+write) accesses
system.l2.overall_accesses::.cpu.inst               2                       # number of overall (read+write) accesses
system.l2.overall_accesses::.cpu.data               1                       # number of overall (read+write) accesses
system.l2.overall_accesses::.switch_cpus.inst          359                       # number of overall (read+write) accesses
system.l2.overall_accesses::.switch_cpus.data       111684                       # number of overall (read+write) accesses
system.l2.overall_accesses::total              112046                       # number of overall (read+write) accesses
system.l2.demand_miss_rate::.cpu.inst               1                       # miss rate for demand accesses
system.l2.demand_miss_rate::.cpu.data               1                       # miss rate for demand accesses
system.l2.demand_miss_rate::.switch_cpus.inst     0.905292                       # miss rate for demand accesses
system.l2.demand_miss_rate::.switch_cpus.data     0.854276                       # miss rate for demand accesses
system.l2.demand_miss_rate::total            0.854444                       # miss rate for demand accesses
system.l2.overall_miss_rate::.cpu.inst              1                       # miss rate for overall accesses
system.l2.overall_miss_rate::.cpu.data              1                       # miss rate for overall accesses
system.l2.overall_miss_rate::.switch_cpus.inst     0.905292                       # miss rate for overall accesses
system.l2.overall_miss_rate::.switch_cpus.data     0.854276                       # miss rate for overall accesses
system.l2.overall_miss_rate::total           0.854444                       # miss rate for overall accesses
system.l2.demand_avg_miss_latency::.cpu.inst        77500                       # average overall miss latency
system.l2.demand_avg_miss_latency::.cpu.data        84000                       # average overall miss latency
system.l2.demand_avg_miss_latency::total     2.496422                       # average overall miss latency
system.l2.overall_avg_miss_latency::.cpu.inst        77500                       # average overall miss latency
system.l2.overall_avg_miss_latency::.cpu.data        84000                       # average overall miss latency
system.l2.overall_avg_miss_latency::total     2.496422                       # average overall miss latency
system.l2.blocked_cycles::no_mshrs                  0                       # number of cycles access was blocked
system.l2.blocked_cycles::no_targets                0                       # number of cycles access was blocked
system.l2.blocked::no_mshrs                         0                       # number of cycles access was blocked
system.l2.blocked::no_targets                       0                       # number of cycles access was blocked
system.l2.avg_blocked_cycles::no_mshrs            nan                       # average number of cycles each access was blocked
system.l2.avg_blocked_cycles::no_targets          nan                       # average number of cycles each access was blocked
system.l2.writebacks::.writebacks               29269                       # number of writebacks
system.l2.writebacks::total                     29269                       # number of writebacks
system.l2.demand_mshr_misses::.cpu.inst             2                       # number of demand (read+write) MSHR misses
system.l2.demand_mshr_misses::.cpu.data             1                       # number of demand (read+write) MSHR misses
system.l2.demand_mshr_misses::total                 3                       # number of demand (read+write) MSHR misses
system.l2.overall_mshr_misses::.cpu.inst            2                       # number of overall MSHR misses
system.l2.overall_mshr_misses::.cpu.data            1                       # number of overall MSHR misses
system.l2.overall_mshr_misses::total                3                       # number of overall MSHR misses
system.l2.demand_mshr_miss_latency::.cpu.inst       135000                       # number of demand (read+write) MSHR miss cycles
system.l2.demand_mshr_miss_latency::.cpu.data        74000                       # number of demand (read+write) MSHR miss cycles
system.l2.demand_mshr_miss_latency::total       209000                       # number of demand (read+write) MSHR miss cycles
system.l2.overall_mshr_miss_latency::.cpu.inst       135000                       # number of overall MSHR miss cycles
system.l2.overall_mshr_miss_latency::.cpu.data        74000                       # number of overall MSHR miss cycles
system.l2.overall_mshr_miss_latency::total       209000                       # number of overall MSHR miss cycles
system.l2.demand_mshr_miss_rate::.cpu.inst            1                       # mshr miss rate for demand accesses
system.l2.demand_mshr_miss_rate::.cpu.data            1                       # mshr miss rate for demand accesses
system.l2.demand_mshr_miss_rate::total       0.000027                       # mshr miss rate for demand accesses
system.l2.overall_mshr_miss_rate::.cpu.inst            1                       # mshr miss rate for overall accesses
system.l2.overall_mshr_miss_rate::.cpu.data            1                       # mshr miss rate for overall accesses
system.l2.overall_mshr_miss_rate::total      0.000027                       # mshr miss rate for overall accesses
system.l2.demand_avg_mshr_miss_latency::.cpu.inst        67500                       # average overall mshr miss latency
system.l2.demand_avg_mshr_miss_latency::.cpu.data        74000                       # average overall mshr miss latency
system.l2.demand_avg_mshr_miss_latency::total 69666.666667                       # average overall mshr miss latency
system.l2.overall_avg_mshr_miss_latency::.cpu.inst        67500                       # average overall mshr miss latency
system.l2.overall_avg_mshr_miss_latency::.cpu.data        74000                       # average overall mshr miss latency
system.l2.overall_avg_mshr_miss_latency::total 69666.666667                       # average overall mshr miss latency
system.l2.replacements                          92163                       # number of replacements
system.l2.WritebackDirty_hits::.writebacks        36313                       # number of WritebackDirty hits
system.l2.WritebackDirty_hits::total            36313                       # number of WritebackDirty hits
system.l2.WritebackDirty_accesses::.writebacks        36313                       # number of WritebackDirty accesses(hits+misses)
system.l2.WritebackDirty_accesses::total        36313                       # number of WritebackDirty accesses(hits+misses)
system.l2.WritebackClean_hits::.writebacks          108                       # number of WritebackClean hits
system.l2.WritebackClean_hits::total              108                       # number of WritebackClean hits
system.l2.WritebackClean_accesses::.writebacks          108                       # number of WritebackClean accesses(hits+misses)
system.l2.WritebackClean_accesses::total          108                       # number of WritebackClean accesses(hits+misses)
system.l2.ReadExReq_hits::.switch_cpus.data         3830                       # number of ReadExReq hits
system.l2.ReadExReq_hits::total                  3830                       # number of ReadExReq hits
system.l2.ReadExReq_misses::.switch_cpus.data        27136                       # number of ReadExReq misses
system.l2.ReadExReq_misses::total               27136                       # number of ReadExReq misses
system.l2.ReadExReq_accesses::.switch_cpus.data        30966                       # number of ReadExReq accesses(hits+misses)
system.l2.ReadExReq_accesses::total             30966                       # number of ReadExReq accesses(hits+misses)
system.l2.ReadExReq_miss_rate::.switch_cpus.data     0.876316                       # miss rate for ReadExReq accesses
system.l2.ReadExReq_miss_rate::total         0.876316                       # miss rate for ReadExReq accesses
system.l2.ReadCleanReq_hits::.switch_cpus.inst           34                       # number of ReadCleanReq hits
system.l2.ReadCleanReq_hits::total                 34                       # number of ReadCleanReq hits
system.l2.ReadCleanReq_misses::.cpu.inst            2                       # number of ReadCleanReq misses
system.l2.ReadCleanReq_misses::.switch_cpus.inst          325                       # number of ReadCleanReq misses
system.l2.ReadCleanReq_misses::total              327                       # number of ReadCleanReq misses
system.l2.ReadCleanReq_miss_latency::.cpu.inst       155000                       # number of ReadCleanReq miss cycles
system.l2.ReadCleanReq_miss_latency::total       155000                       # number of ReadCleanReq miss cycles
system.l2.ReadCleanReq_accesses::.cpu.inst            2                       # number of ReadCleanReq accesses(hits+misses)
system.l2.ReadCleanReq_accesses::.switch_cpus.inst          359                       # number of ReadCleanReq accesses(hits+misses)
system.l2.ReadCleanReq_accesses::total            361                       # number of ReadCleanReq accesses(hits+misses)
system.l2.ReadCleanReq_miss_rate::.cpu.inst            1                       # miss rate for ReadCleanReq accesses
system.l2.ReadCleanReq_miss_rate::.switch_cpus.inst     0.905292                       # miss rate for ReadCleanReq accesses
system.l2.ReadCleanReq_miss_rate::total      0.905817                       # miss rate for ReadCleanReq accesses
system.l2.ReadCleanReq_avg_miss_latency::.cpu.inst        77500                       # average ReadCleanReq miss latency
system.l2.ReadCleanReq_avg_miss_latency::total   474.006116                       # average ReadCleanReq miss latency
system.l2.ReadCleanReq_mshr_misses::.cpu.inst            2                       # number of ReadCleanReq MSHR misses
system.l2.ReadCleanReq_mshr_misses::total            2                       # number of ReadCleanReq MSHR misses
system.l2.ReadCleanReq_mshr_miss_latency::.cpu.inst       135000                       # number of ReadCleanReq MSHR miss cycles
system.l2.ReadCleanReq_mshr_miss_latency::total       135000                       # number of ReadCleanReq MSHR miss cycles
system.l2.ReadCleanReq_mshr_miss_rate::.cpu.inst            1                       # mshr miss rate for ReadCleanReq accesses
system.l2.ReadCleanReq_mshr_miss_rate::total     0.005540                       # mshr miss rate for ReadCleanReq accesses
system.l2.ReadCleanReq_avg_mshr_miss_latency::.cpu.inst        67500                       # average ReadCleanReq mshr miss latency
system.l2.ReadCleanReq_avg_mshr_miss_latency::total        67500                       # average ReadCleanReq mshr miss latency
system.l2.ReadSharedReq_hits::.switch_cpus.data        12445                       # number of ReadSharedReq hits
system.l2.ReadSharedReq_hits::total             12445                       # number of ReadSharedReq hits
system.l2.ReadSharedReq_misses::.cpu.data            1                       # number of ReadSharedReq misses
system.l2.ReadSharedReq_misses::.switch_cpus.data        68273                       # number of ReadSharedReq misses
system.l2.ReadSharedReq_misses::total           68274                       # number of ReadSharedReq misses
system.l2.ReadSharedReq_miss_latency::.cpu.data        84000                       # number of ReadSharedReq miss cycles
system.l2.ReadSharedReq_miss_latency::total        84000                       # number of ReadSharedReq miss cycles
system.l2.ReadSharedReq_accesses::.cpu.data            1                       # number of ReadSharedReq accesses(hits+misses)
system.l2.ReadSharedReq_accesses::.switch_cpus.data        80718                       # number of ReadSharedReq accesses(hits+misses)
system.l2.ReadSharedReq_accesses::total         80719                       # number of ReadSharedReq accesses(hits+misses)
system.l2.ReadSharedReq_miss_rate::.cpu.data            1                       # miss rate for ReadSharedReq accesses
system.l2.ReadSharedReq_miss_rate::.switch_cpus.data     0.845821                       # miss rate for ReadSharedReq accesses
system.l2.ReadSharedReq_miss_rate::total     0.845823                       # miss rate for ReadSharedReq accesses
system.l2.ReadSharedReq_avg_miss_latency::.cpu.data        84000                       # average ReadSharedReq miss latency
system.l2.ReadSharedReq_avg_miss_latency::total     1.230337                       # average ReadSharedReq miss latency
system.l2.ReadSharedReq_mshr_misses::.cpu.data            1                       # number of ReadSharedReq MSHR misses
system.l2.ReadSharedReq_mshr_misses::total            1                       # number of ReadSharedReq MSHR misses
system.l2.ReadSharedReq_mshr_miss_latency::.cpu.data        74000                       # number of ReadSharedReq MSHR miss cycles
system.l2.ReadSharedReq_mshr_miss_latency::total        74000                       # number of ReadSharedReq MSHR miss cycles
system.l2.ReadSharedReq_mshr_miss_rate::.cpu.data            1                       # mshr miss rate for ReadSharedReq accesses
system.l2.ReadSharedReq_mshr_miss_rate::total     0.000012                       # mshr miss rate for ReadSharedReq accesses
system.l2.ReadSharedReq_avg_mshr_miss_latency::.cpu.data        74000                       # average ReadSharedReq mshr miss latency
system.l2.ReadSharedReq_avg_mshr_miss_latency::total        74000                       # average ReadSharedReq mshr miss latency
system.l2.tags.pwrStateResidencyTicks::UNDEFINED 560748719599500                       # Cumulative time (in ticks) in various power states
system.l2.tags.tagsinuse                  4055.659494                       # Cycle average of tags in use
system.l2.tags.total_refs                      214532                       # Total number of references to valid blocks.
system.l2.tags.sampled_refs                     92163                       # Sample count of references to valid blocks.
system.l2.tags.avg_refs                      2.327745                       # Average number of references to valid blocks.
system.l2.tags.warmup_cycle              560734027527000                       # Cycle when the warmup percentage was hit.
system.l2.tags.occ_blocks::.writebacks      20.153501                       # Average occupied blocks per requestor
system.l2.tags.occ_blocks::.cpu.inst         0.021571                       # Average occupied blocks per requestor
system.l2.tags.occ_blocks::.cpu.data         0.011850                       # Average occupied blocks per requestor
system.l2.tags.occ_blocks::.switch_cpus.inst     8.485223                       # Average occupied blocks per requestor
system.l2.tags.occ_blocks::.switch_cpus.data  4026.987349                       # Average occupied blocks per requestor
[...]
system.mem_ctrls.rank0.actPowerDownEnergy            0                       # Energy for active power-down per rank (pJ)
system.mem_ctrls.rank0.prePowerDownEnergy            0                       # Energy for precharge power-down per rank (pJ)
system.mem_ctrls.rank0.selfRefreshEnergy            0                       # Energy for self refresh per rank (pJ)
system.mem_ctrls.rank0.totalEnergy        16866444480                       # Total energy per rank (pJ)
system.mem_ctrls.rank0.averagePower        383.999996                       # Core power per rank (mW)
system.mem_ctrls.rank0.totalIdleTime                0                       # Total Idle time Per DRAM Rank
system.mem_ctrls.rank0.memoryStateTime::IDLE  43923033000                       # Time in different power states
system.mem_ctrls.rank0.memoryStateTime::REF            0                       # Time in different power states
system.mem_ctrls.rank0.memoryStateTime::SREF            0                       # Time in different power states
system.mem_ctrls.rank0.memoryStateTime::PRE_PDN            0                       # Time in different power states
system.mem_ctrls.rank0.memoryStateTime::ACT            0                       # Time in different power states
system.mem_ctrls.rank0.memoryStateTime::ACT_PDN            0                       # Time in different power states
system.cpu_clk_domain.clock                       500                       # Clock period in ticks
system.cpu.pwrStateResidencyTicks::OFF    43923033000                       # Cumulative time (in ticks) in various power states
system.cpu.icache.pwrStateResidencyTicks::UNDEFINED  43923033000                       # Cumulative time (in ticks) in various power states
system.cpu.icache.demand_hits::.switch_cpus.inst     50514996                       # number of demand (read+write) hits
system.cpu.icache.demand_hits::total         50514996                       # number of demand (read+write) hits
system.cpu.icache.overall_hits::.switch_cpus.inst     50514996                       # number of overall hits
system.cpu.icache.overall_hits::total        50514996                       # number of overall hits
system.cpu.icache.demand_misses::.switch_cpus.inst         1773                       # number of demand (read+write) misses
system.cpu.icache.demand_misses::total           1773                       # number of demand (read+write) misses
system.cpu.icache.overall_misses::.switch_cpus.inst         1773                       # number of overall misses
system.cpu.icache.overall_misses::total          1773                       # number of overall misses
system.cpu.icache.demand_accesses::.switch_cpus.inst     50516769                       # number of demand (read+write) accesses
system.cpu.icache.demand_accesses::total     50516769                       # number of demand (read+write) accesses
system.cpu.icache.overall_accesses::.switch_cpus.inst     50516769                       # number of overall (read+write) accesses
system.cpu.icache.overall_accesses::total     50516769                       # number of overall (read+write) accesses
system.cpu.icache.demand_miss_rate::.switch_cpus.inst     0.000035                       # miss rate for demand accesses
system.cpu.icache.demand_miss_rate::total     0.000035                       # miss rate for demand accesses
system.cpu.icache.overall_miss_rate::.switch_cpus.inst     0.000035                       # miss rate for overall accesses
system.cpu.icache.overall_miss_rate::total     0.000035                       # miss rate for overall accesses
system.cpu.icache.blocked_cycles::no_mshrs            0                       # number of cycles access was blocked
system.cpu.icache.blocked_cycles::no_targets            0                       # number of cycles access was blocked
system.cpu.icache.blocked::no_mshrs                 0                       # number of cycles access was blocked
system.cpu.icache.blocked::no_targets               0                       # number of cycles access was blocked
system.cpu.icache.avg_blocked_cycles::no_mshrs          nan                       # average number of cycles each access was blocked
system.cpu.icache.avg_blocked_cycles::no_targets          nan                       # average number of cycles each access was blocked
system.cpu.icache.writebacks::.writebacks         1529                       # number of writebacks
system.cpu.icache.writebacks::total              1529                       # number of writebacks
system.cpu.icache.replacements                   1529                       # number of replacements
system.cpu.icache.ReadReq_hits::.switch_cpus.inst     50514996                       # number of ReadReq hits
system.cpu.icache.ReadReq_hits::total        50514996                       # number of ReadReq hits
system.cpu.icache.ReadReq_misses::.switch_cpus.inst         1773                       # number of ReadReq misses
system.cpu.icache.ReadReq_misses::total          1773                       # number of ReadReq misses
system.cpu.icache.ReadReq_accesses::.switch_cpus.inst     50516769                       # number of ReadReq accesses(hits+misses)
system.cpu.icache.ReadReq_accesses::total     50516769                       # number of ReadReq accesses(hits+misses)
system.cpu.icache.ReadReq_miss_rate::.switch_cpus.inst     0.000035                       # miss rate for ReadReq accesses
system.cpu.icache.ReadReq_miss_rate::total     0.000035                       # miss rate for ReadReq accesses
system.cpu.icache.tags.pwrStateResidencyTicks::UNDEFINED  43923033000                       # Cumulative time (in ticks) in various power states
system.cpu.icache.tags.tagsinuse           392.110394                       # Cycle average of tags in use
system.cpu.icache.tags.total_refs            66922649                       # Total number of references to valid blocks.
system.cpu.icache.tags.sampled_refs              2026                       # Sample count of references to valid blocks.
system.cpu.icache.tags.avg_refs          33031.909674                       # Average number of references to valid blocks.
system.cpu.icache.tags.warmup_cycle                 0                       # Cycle when the warmup percentage was hit.
system.cpu.icache.tags.occ_blocks::.cpu.inst     0.880311                       # Average occupied blocks per requestor
system.cpu.icache.tags.occ_blocks::.switch_cpus.inst   391.230083                       # Average occupied blocks per requestor
system.cpu.icache.tags.occ_percent::.cpu.inst     0.001719                       # Average percentage of cache occupancy
system.cpu.icache.tags.occ_percent::.switch_cpus.inst     0.764121                       # Average percentage of cache occupancy
system.cpu.icache.tags.occ_percent::total     0.765841                       # Average percentage of cache occupancy
system.cpu.icache.tags.occ_task_id_blocks::1024          497                       # Occupied blocks per task id
system.cpu.icache.tags.age_task_id_blocks_1024::2            9                       # Occupied blocks per task id
system.cpu.icache.tags.age_task_id_blocks_1024::4          488                       # Occupied blocks per task id
system.cpu.icache.tags.occ_task_id_percent::1024     0.970703                       # Percentage of cache occupancy per task id
system.cpu.icache.tags.tag_accesses         101035311                       # Number of tag accesses
system.cpu.icache.tags.data_accesses        101035311                       # Number of data accesses
system.cpu.dtb.walker.pwrStateResidencyTicks::UNDEFINED  43923033000                       # Cumulative time (in ticks) in various power states
system.cpu.interrupts.clk_domain.clock           8000                       # Clock period in ticks
system.cpu.itb_walker_cache.pwrStateResidencyTicks::UNDEFINED  43923033000                       # Cumulative time (in ticks) in various power states
system.cpu.itb_walker_cache.blocked_cycles::no_mshrs            0                       # number of cycles access was blocked
system.cpu.itb_walker_cache.blocked_cycles::no_targets            0                       # number of cycles access was blocked
system.cpu.itb_walker_cache.blocked::no_mshrs            0                       # number of cycles access was blocked
system.cpu.itb_walker_cache.blocked::no_targets            0                       # number of cycles access was blocked
system.cpu.itb_walker_cache.avg_blocked_cycles::no_mshrs          nan                       # average number of cycles each access was blocked
system.cpu.itb_walker_cache.avg_blocked_cycles::no_targets          nan                       # average number of cycles each access was blocked
system.cpu.itb_walker_cache.replacements            0                       # number of replacements
system.cpu.itb_walker_cache.tags.pwrStateResidencyTicks::UNDEFINED  43923033000                       # Cumulative time (in ticks) in various power states
system.cpu.itb_walker_cache.tags.tagsinuse            0                       # Cycle average of tags in use
system.cpu.itb_walker_cache.tags.total_refs            0                       # Total number of references to valid blocks.
system.cpu.itb_walker_cache.tags.sampled_refs            0                       # Sample count of references to valid blocks.
system.cpu.itb_walker_cache.tags.avg_refs          nan                       # Average number of references to valid blocks.
system.cpu.itb_walker_cache.tags.warmup_cycle            0                       # Cycle when the warmup percentage was hit.
system.cpu.itb_walker_cache.tags.tag_accesses            0                       # Number of tag accesses
system.cpu.itb_walker_cache.tags.data_accesses            0                       # Number of data accesses
system.cpu.itb.walker.pwrStateResidencyTicks::UNDEFINED  43923033000                       # Cumulative time (in ticks) in various power states
system.cpu.dtb_walker_cache.pwrStateResidencyTicks::UNDEFINED  43923033000                       # Cumulative time (in ticks) in various power states
system.cpu.dtb_walker_cache.blocked_cycles::no_mshrs            0                       # number of cycles access was blocked
system.cpu.dtb_walker_cache.blocked_cycles::no_targets            0                       # number of cycles access was blocked
system.cpu.dtb_walker_cache.blocked::no_mshrs            0                       # number of cycles access was blocked
system.cpu.dtb_walker_cache.blocked::no_targets            0                       # number of cycles access was blocked
system.cpu.dtb_walker_cache.avg_blocked_cycles::no_mshrs          nan                       # average number of cycles each access was blocked
system.cpu.dtb_walker_cache.avg_blocked_cycles::no_targets          nan                       # average number of cycles each access was blocked
system.cpu.dtb_walker_cache.replacements            0                       # number of replacements
system.cpu.dtb_walker_cache.tags.pwrStateResidencyTicks::UNDEFINED  43923033000                       # Cumulative time (in ticks) in various power states
system.cpu.dtb_walker_cache.tags.tagsinuse            0                       # Cycle average of tags in use
system.cpu.dtb_walker_cache.tags.total_refs            0                       # Total number of references to valid blocks.
system.cpu.dtb_walker_cache.tags.sampled_refs            0                       # Sample count of references to valid blocks.
system.cpu.dtb_walker_cache.tags.avg_refs          nan                       # Average number of references to valid blocks.
system.cpu.dtb_walker_cache.tags.warmup_cycle            0                       # Cycle when the warmup percentage was hit.
system.cpu.dtb_walker_cache.tags.tag_accesses            0                       # Number of tag accesses
system.cpu.dtb_walker_cache.tags.data_accesses            0                       # Number of data accesses
system.cpu.dcache.pwrStateResidencyTicks::UNDEFINED  43923033000                       # Cumulative time (in ticks) in various power states
system.cpu.dcache.demand_hits::.switch_cpus.data     29182353                       # number of demand (read+write) hits
system.cpu.dcache.demand_hits::total         29182353                       # number of demand (read+write) hits
system.cpu.dcache.overall_hits::.switch_cpus.data     29186513                       # number of overall hits
system.cpu.dcache.overall_hits::total        29186513                       # number of overall hits
system.cpu.dcache.demand_misses::.switch_cpus.data       332943                       # number of demand (read+write) misses
system.cpu.dcache.demand_misses::total         332943                       # number of demand (read+write) misses
system.cpu.dcache.overall_misses::.switch_cpus.data       337103                       # number of overall misses
system.cpu.dcache.overall_misses::total        337103                       # number of overall misses
system.cpu.dcache.demand_accesses::.switch_cpus.data     29515296                       # number of demand (read+write) accesses
system.cpu.dcache.demand_accesses::total     29515296                       # number of demand (read+write) accesses
system.cpu.dcache.overall_accesses::.switch_cpus.data     29523616                       # number of overall (read+write) accesses
system.cpu.dcache.overall_accesses::total     29523616                       # number of overall (read+write) accesses
system.cpu.dcache.demand_miss_rate::.switch_cpus.data     0.011280                       # miss rate for demand accesses
system.cpu.dcache.demand_miss_rate::total     0.011280                       # miss rate for demand accesses
system.cpu.dcache.overall_miss_rate::.switch_cpus.data     0.011418                       # miss rate for overall accesses
system.cpu.dcache.overall_miss_rate::total     0.011418                       # miss rate for overall accesses
system.cpu.dcache.blocked_cycles::no_mshrs            0                       # number of cycles access was blocked
system.cpu.dcache.blocked_cycles::no_targets            0                       # number of cycles access was blocked
system.cpu.dcache.blocked::no_mshrs                 0                       # number of cycles access was blocked
system.cpu.dcache.blocked::no_targets               0                       # number of cycles access was blocked
system.cpu.dcache.avg_blocked_cycles::no_mshrs          nan                       # average number of cycles each access was blocked
system.cpu.dcache.avg_blocked_cycles::no_targets          nan                       # average number of cycles each access was blocked
system.cpu.dcache.writebacks::.writebacks       110177                       # number of writebacks
system.cpu.dcache.writebacks::total            110177                       # number of writebacks
system.cpu.dcache.replacements                 337103                       # number of replacements
system.cpu.dcache.ReadReq_hits::.switch_cpus.data     22564861                       # number of ReadReq hits
system.cpu.dcache.ReadReq_hits::total        22564861                       # number of ReadReq hits
system.cpu.dcache.ReadReq_misses::.switch_cpus.data       235957                       # number of ReadReq misses
system.cpu.dcache.ReadReq_misses::total        235957                       # number of ReadReq misses
system.cpu.dcache.ReadReq_accesses::.switch_cpus.data     22800818                       # number of ReadReq accesses(hits+misses)
system.cpu.dcache.ReadReq_accesses::total     22800818                       # number of ReadReq accesses(hits+misses)
system.cpu.dcache.ReadReq_miss_rate::.switch_cpus.data     0.010349                       # miss rate for ReadReq accesses
system.cpu.dcache.ReadReq_miss_rate::total     0.010349                       # miss rate for ReadReq accesses
system.cpu.dcache.WriteReq_hits::.switch_cpus.data      6617492                       # number of WriteReq hits
system.cpu.dcache.WriteReq_hits::total        6617492                       # number of WriteReq hits
system.cpu.dcache.WriteReq_misses::.switch_cpus.data        96986                       # number of WriteReq misses
system.cpu.dcache.WriteReq_misses::total        96986                       # number of WriteReq misses
system.cpu.dcache.WriteReq_accesses::.switch_cpus.data      6714478                       # number of WriteReq accesses(hits+misses)
system.cpu.dcache.WriteReq_accesses::total      6714478                       # number of WriteReq accesses(hits+misses)
system.cpu.dcache.WriteReq_miss_rate::.switch_cpus.data     0.014444                       # miss rate for WriteReq accesses
system.cpu.dcache.WriteReq_miss_rate::total     0.014444                       # miss rate for WriteReq accesses
system.cpu.dcache.SoftPFReq_hits::.switch_cpus.data         4160                       # number of SoftPFReq hits
system.cpu.dcache.SoftPFReq_hits::total          4160                       # number of SoftPFReq hits
system.cpu.dcache.SoftPFReq_misses::.switch_cpus.data         4160                       # number of SoftPFReq misses
system.cpu.dcache.SoftPFReq_misses::total         4160                       # number of SoftPFReq misses
system.cpu.dcache.SoftPFReq_accesses::.switch_cpus.data         8320                       # number of SoftPFReq accesses(hits+misses)
system.cpu.dcache.SoftPFReq_accesses::total         8320                       # number of SoftPFReq accesses(hits+misses)
system.cpu.dcache.SoftPFReq_miss_rate::.switch_cpus.data     0.500000                       # miss rate for SoftPFReq accesses
system.cpu.dcache.SoftPFReq_miss_rate::total     0.500000                       # miss rate for SoftPFReq accesses
system.cpu.dcache.tags.pwrStateResidencyTicks::UNDEFINED  43923033000                       # Cumulative time (in ticks) in various power states
system.cpu.dcache.tags.tagsinuse                 1024                       # Cycle average of tags in use
system.cpu.dcache.tags.total_refs            31144916                       # Total number of references to valid blocks.
system.cpu.dcache.tags.sampled_refs            338127                       # Sample count of references to valid blocks.
system.cpu.dcache.tags.avg_refs             92.110112                       # Average number of references to valid blocks.
system.cpu.dcache.tags.warmup_cycle                 0                       # Cycle when the warmup percentage was hit.
system.cpu.dcache.tags.occ_blocks::.switch_cpus.data         1024                       # Average occupied blocks per requestor
system.cpu.dcache.tags.occ_percent::.switch_cpus.data            1                       # Average percentage of cache occupancy
system.cpu.dcache.tags.occ_percent::total            1                       # Average percentage of cache occupancy
system.cpu.dcache.tags.occ_task_id_blocks::1024         1024                       # Occupied blocks per task id
system.cpu.dcache.tags.age_task_id_blocks_1024::0           44                       # Occupied blocks per task id
system.cpu.dcache.tags.age_task_id_blocks_1024::1          313                       # Occupied blocks per task id
system.cpu.dcache.tags.age_task_id_blocks_1024::2          664                       # Occupied blocks per task id
system.cpu.dcache.tags.age_task_id_blocks_1024::3            2                       # Occupied blocks per task id
system.cpu.dcache.tags.age_task_id_blocks_1024::4            1                       # Occupied blocks per task id
system.cpu.dcache.tags.occ_task_id_percent::1024            1                       # Percentage of cache occupancy per task id
system.cpu.dcache.tags.tag_accesses          59384335                       # Number of tag accesses
system.cpu.dcache.tags.data_accesses         59384335                       # Number of data accesses

---------- End Simulation Statistics   ----------
