
---------- Begin Simulation Statistics ----------
final_tick                               805417379257500                       # Number of ticks from beginning of simulation (restored from checkpoints and never reset)
host_inst_rate                                  39264                       # Simulator instruction rate (inst/s)
host_mem_usage                                 829648                       # Number of bytes of host memory used
host_op_rate                                    80137                       # Simulator op (including micro ops) rate (op/s)
host_seconds                                   254.69                       # Real time elapsed on the host
host_tick_rate                               27918921                       # Simulator tick rate (ticks/s)
sim_freq                                 1000000000000                       # Frequency of simulated ticks
sim_insts                                    10000011                       # Number of instructions simulated
sim_ops                                      20409937                       # Number of ops (including micro ops) simulated
sim_seconds                                  0.007111                       # Number of seconds simulated
sim_ticks                                  7110587500                       # Number of ticks simulated
system.cpu.Branches                                 2                       # Number of branches fetched
system.cpu.committedInsts                           9                       # Number of instructions committed
system.cpu.committedOps                            18                       # Number of ops (including micro ops) committed
system.cpu.dtb.rdAccesses                           5                       # TLB accesses on read requests
system.cpu.dtb.rdMisses                             0                       # TLB misses on read requests
system.cpu.dtb.wrAccesses                           0                       # TLB accesses on write requests
system.cpu.dtb.wrMisses                             0                       # TLB misses on write requests
system.cpu.idle_fraction                            0                       # Percentage of idle cycles
system.cpu.itb.rdAccesses                           0                       # TLB accesses on read requests
system.cpu.itb.rdMisses                             0                       # TLB misses on read requests
system.cpu.itb.wrAccesses                          12                       # TLB accesses on write requests
system.cpu.itb.wrMisses                             0                       # TLB misses on write requests
system.cpu.not_idle_fraction                        1                       # Percentage of non-idle cycles
system.cpu.numCycles                               21                       # number of cpu cycles simulated
system.cpu.numWorkItemsCompleted                    0                       # number of work items this cpu completed
system.cpu.numWorkItemsStarted                      0                       # number of work items this cpu started
system.cpu.num_busy_cycles                         21                       # Number of busy cycles
system.cpu.num_cc_register_reads                   10                       # number of times the CC registers were read
system.cpu.num_cc_register_writes                   6                       # number of times the CC registers were written
system.cpu.num_conditional_control_insts            2                       # number of instructions that are conditional controls
system.cpu.num_fp_alu_accesses                      0                       # Number of float alu accesses
system.cpu.num_fp_insts                             0                       # number of float instructions
system.cpu.num_fp_register_reads                    0                       # number of times the floating registers were read
system.cpu.num_fp_register_writes                   0                       # number of times the floating registers were written
system.cpu.num_func_calls                           0                       # number of times a function call or return occured
system.cpu.num_idle_cycles                          0                       # Number of idle cycles
system.cpu.num_int_alu_accesses                    18                       # Number of integer alu accesses
system.cpu.num_int_insts                           18                       # number of integer instructions
system.cpu.num_int_register_reads                  45                       # number of times the integer registers were read
system.cpu.num_int_register_writes                 16                       # number of times the integer registers were written
system.cpu.num_load_insts                           5                       # Number of load instructions
system.cpu.num_mem_refs                             5                       # number of memory refs
system.cpu.num_store_insts                          0                       # Number of store instructions
system.cpu.num_vec_alu_accesses                     0                       # Number of vector alu accesses
system.cpu.num_vec_insts                            0                       # number of vector instructions
system.cpu.num_vec_register_reads                   0                       # number of times the vector registers were read
system.cpu.num_vec_register_writes                  0                       # number of times the vector registers were written
system.cpu.op_class::No_OpClass                     0      0.00%      0.00% # Class of executed instruction
system.cpu.op_class::IntAlu                        13     72.22%     72.22% # Class of executed instruction
system.cpu.op_class::IntMult                        0      0.00%     72.22% # Class of executed instruction
system.cpu.op_class::IntDiv                         0      0.00%     72.22% # Class of executed instruction
system.cpu.op_class::FloatAdd                       0      0.00%     72.22% # Class of executed instruction
system.cpu.op_class::FloatCmp                       0      0.00%     72.22% # Class of executed instruction
system.cpu.op_class::FloatCvt                       0      0.00%     72.22% # Class of executed instruction
system.cpu.op_class::FloatMult                      0      0.00%     72.22% # Class of executed instruction
system.cpu.op_class::FloatMultAcc                   0      0.00%     72.22% # Class of executed instruction
system.cpu.op_class::FloatDiv                       0      0.00%     72.22% # Class of executed instruction
system.cpu.op_class::FloatMisc                      0      0.00%     72.22% # Class of executed instruction
system.cpu.op_class::FloatSqrt                      0      0.00%     72.22% # Class of executed instruction
system.cpu.op_class::SimdAdd                        0      0.00%     72.22% # Class of executed instruction
system.cpu.op_class::SimdAddAcc                     0      0.00%     72.22% # Class of executed instruction
system.cpu.op_class::SimdAlu                        0      0.00%     72.22% # Class of executed instruction
system.cpu.op_class::SimdCmp                        0      0.00%     72.22% # Class of executed instruction
system.cpu.op_class::SimdCvt                        0      0.00%     72.22% # Class of executed instruction
system.cpu.op_class::SimdMisc                       0      0.00%     72.22% # Class of executed instruction
system.cpu.op_class::SimdMult                       0      0.00%     72.22% # Class of executed instruction
system.cpu.op_class::SimdMultAcc                    0      0.00%     72.22% # Class of executed instruction
system.cpu.op_class::SimdShift                      0      0.00%     72.22% # Class of executed instruction
system.cpu.op_class::SimdShiftAcc                   0      0.00%     72.22% # Class of executed instruction
system.cpu.op_class::SimdDiv                        0      0.00%     72.22% # Class of executed instruction
system.cpu.op_class::SimdSqrt                       0      0.00%     72.22% # Class of executed instruction
system.cpu.op_class::SimdFloatAdd                   0      0.00%     72.22% # Class of executed instruction
system.cpu.op_class::SimdFloatAlu                   0      0.00%     72.22% # Class of executed instruction
system.cpu.op_class::SimdFloatCmp                   0      0.00%     72.22% # Class of executed instruction
system.cpu.op_class::SimdFloatCvt                   0      0.00%     72.22% # Class of executed instruction
system.cpu.op_class::SimdFloatDiv                   0      0.00%     72.22% # Class of executed instruction
system.cpu.op_class::SimdFloatMisc                  0      0.00%     72.22% # Class of executed instruction
system.cpu.op_class::SimdFloatMult                  0      0.00%     72.22% # Class of executed instruction
system.cpu.op_class::SimdFloatMultAcc               0      0.00%     72.22% # Class of executed instruction
system.cpu.op_class::SimdFloatSqrt                  0      0.00%     72.22% # Class of executed instruction
system.cpu.op_class::SimdReduceAdd                  0      0.00%     72.22% # Class of executed instruction
system.cpu.op_class::SimdReduceAlu                  0      0.00%     72.22% # Class of executed instruction
system.cpu.op_class::SimdReduceCmp                  0      0.00%     72.22% # Class of executed instruction
system.cpu.op_class::SimdFloatReduceAdd             0      0.00%     72.22% # Class of executed instruction
system.cpu.op_class::SimdFloatReduceCmp             0      0.00%     72.22% # Class of executed instruction
system.cpu.op_class::SimdAes                        0      0.00%     72.22% # Class of executed instruction
system.cpu.op_class::SimdAesMix                     0      0.00%     72.22% # Class of executed instruction
system.cpu.op_class::SimdSha1Hash                   0      0.00%     72.22% # Class of executed instruction
system.cpu.op_class::SimdSha1Hash2                  0      0.00%     72.22% # Class of executed instruction
system.cpu.op_class::SimdSha256Hash                 0      0.00%     72.22% # Class of executed instruction
system.cpu.op_class::SimdSha256Hash2                0      0.00%     72.22% # Class of executed instruction
system.cpu.op_class::SimdShaSigma2                  0      0.00%     72.22% # Class of executed instruction
system.cpu.op_class::SimdShaSigma3                  0      0.00%     72.22% # Class of executed instruction
system.cpu.op_class::SimdPredAlu                    0      0.00%     72.22% # Class of executed instruction
system.cpu.op_class::MemRead                        5     27.78%    100.00% # Class of executed instruction
system.cpu.op_class::MemWrite                       0      0.00%    100.00% # Class of executed instruction
system.cpu.op_class::FloatMemRead                   0      0.00%    100.00% # Class of executed instruction
system.cpu.op_class::FloatMemWrite                  0      0.00%    100.00% # Class of executed instruction
system.cpu.op_class::IprAccess                      0      0.00%    100.00% # Class of executed instruction
system.cpu.op_class::InstPrefetch                   0      0.00%    100.00% # Class of executed instruction
system.cpu.op_class::total                         18                       # Class of executed instruction
system.cpu.workload.numSyscalls                     0                       # Number of system calls
system.membus.snoop_filter.hit_multi_requests            0                       # Number of requests hitting in the snoop filter with multiple (>1) holders of the requested data.
system.membus.snoop_filter.hit_multi_snoops            0                       # Number of snoops hitting in the snoop filter with multiple (>1) holders of the requested data.
system.membus.snoop_filter.hit_single_requests        89073                       # Number of requests hitting in the snoop filter with a single holder of the requested data.
system.membus.snoop_filter.hit_single_snoops            0                       # Number of snoops hitting in the snoop filter with a single holder of the requested data.
system.membus.snoop_filter.tot_requests        182552                       # Total number of requests made to the snoop filter.
system.membus.snoop_filter.tot_snoops               0                       # Total number of snoops made to the snoop filter.
system.switch_cpus.branchPred.BTBCorrect            0                       # Number of correct BTB predictions (this stat may not work properly.
system.switch_cpus.branchPred.BTBHitPct      0.000000                       # BTB Hit Percentage
system.switch_cpus.branchPred.BTBHits               0                       # Number of BTB hits
system.switch_cpus.branchPred.BTBLookups      1845372                       # Number of BTB lookups
system.switch_cpus.branchPred.RASInCorrect            1                       # Number of incorrect RAS predictions.
system.switch_cpus.branchPred.condIncorrect          213                       # Number of conditional branches incorrect
system.switch_cpus.branchPred.condPredicted      2603671                       # Number of conditional branches predicted
system.switch_cpus.branchPred.indirectHits       411046                       # Number of indirect target hits.
system.switch_cpus.branchPred.indirectLookups      1845372                       # Number of indirect predictor lookups.
system.switch_cpus.branchPred.indirectMisses      1434326                       # Number of indirect misses.
system.switch_cpus.branchPred.lookups         2603860                       # Number of BP lookups
system.switch_cpus.branchPred.usedRAS              89                       # Number of times the RAS was used to get a target.
system.switch_cpus.branchPredindirectMispredicted          146                       # Number of mispredicted indirect branches.
system.switch_cpus.cc_regfile_reads          13013778                       # number of cc regfile reads
system.switch_cpus.cc_regfile_writes          6028243                       # number of cc regfile writes
system.switch_cpus.commit.amos                      0                       # Number of atomic instructions committed
system.switch_cpus.commit.branchMispredicts          217                       # The number of times a branch was mispredicted
system.switch_cpus.commit.branches            2602501                       # Number of branches committed
system.switch_cpus.commit.bw_lim_events       2367281                       # number cycles where commit BW limit reached
system.switch_cpus.commit.commitSquashedInsts         8303                       # The number of squashed insts skipped by commit
system.switch_cpus.commit.committedInsts     10000002                       # Number of instructions committed
system.switch_cpus.commit.committedOps       20409919                       # Number of ops (including micro ops) committed
system.switch_cpus.commit.committed_per_cycle::samples     14215439                       # Number of insts commited each cycle
system.switch_cpus.commit.committed_per_cycle::mean     1.435757                       # Number of insts commited each cycle
system.switch_cpus.commit.committed_per_cycle::stdev     3.002892                       # Number of insts commited each cycle
system.switch_cpus.commit.committed_per_cycle::underflows            0      0.00%      0.00% # Number of insts commited each cycle
system.switch_cpus.commit.committed_per_cycle::0     11307330     79.54%     79.54% # Number of insts commited each cycle
system.switch_cpus.commit.committed_per_cycle::1       235036      1.65%     81.20% # Number of insts commited each cycle
system.switch_cpus.commit.committed_per_cycle::2        12855      0.09%     81.29% # Number of insts commited each cycle
system.switch_cpus.commit.committed_per_cycle::3       174397      1.23%     82.51% # Number of insts commited each cycle
system.switch_cpus.commit.committed_per_cycle::4        17831      0.13%     82.64% # Number of insts commited each cycle
system.switch_cpus.commit.committed_per_cycle::5        29267      0.21%     82.84% # Number of insts commited each cycle
system.switch_cpus.commit.committed_per_cycle::6        30019      0.21%     83.06% # Number of insts commited each cycle
system.switch_cpus.commit.committed_per_cycle::7        41423      0.29%     83.35% # Number of insts commited each cycle
system.switch_cpus.commit.committed_per_cycle::8      2367281     16.65%    100.00% # Number of insts commited each cycle
system.switch_cpus.commit.committed_per_cycle::overflows            0      0.00%    100.00% # Number of insts commited each cycle
system.switch_cpus.commit.committed_per_cycle::min_value            0                       # Number of insts commited each cycle
system.switch_cpus.commit.committed_per_cycle::max_value            8                       # Number of insts commited each cycle
system.switch_cpus.commit.committed_per_cycle::total     14215439                       # Number of insts commited each cycle
system.switch_cpus.commit.fp_insts                  0                       # Number of committed floating point instructions.
system.switch_cpus.commit.function_calls            7                       # Number of function calls committed.
system.switch_cpus.commit.int_insts          20409909                       # Number of committed integer instructions.
system.switch_cpus.commit.loads               4520333                       # Number of loads committed
system.switch_cpus.commit.membars                   0                       # Number of memory barriers committed
system.switch_cpus.commit.op_class_0::No_OpClass           10      0.00%      0.00% # Class of committed instruction
system.switch_cpus.commit.op_class_0::IntAlu     15752360     77.18%     77.18% # Class of committed instruction
system.switch_cpus.commit.op_class_0::IntMult            0      0.00%     77.18% # Class of committed instruction
system.switch_cpus.commit.op_class_0::IntDiv            0      0.00%     77.18% # Class of committed instruction
system.switch_cpus.commit.op_class_0::FloatAdd            0      0.00%     77.18% # Class of committed instruction
system.switch_cpus.commit.op_class_0::FloatCmp            0      0.00%     77.18% # Class of committed instruction
system.switch_cpus.commit.op_class_0::FloatCvt            0      0.00%     77.18% # Class of committed instruction
system.switch_cpus.commit.op_class_0::FloatMult            0      0.00%     77.18% # Class of committed instruction
system.switch_cpus.commit.op_class_0::FloatMultAcc            0      0.00%     77.18% # Class of committed instruction
system.switch_cpus.commit.op_class_0::FloatDiv            0      0.00%     77.18% # Class of committed instruction
system.switch_cpus.commit.op_class_0::FloatMisc            0      0.00%     77.18% # Class of committed instruction
system.switch_cpus.commit.op_class_0::FloatSqrt            0      0.00%     77.18% # Class of committed instruction
system.switch_cpus.commit.op_class_0::SimdAdd            0      0.00%     77.18% # Class of committed instruction
system.switch_cpus.commit.op_class_0::SimdAddAcc            0      0.00%     77.18% # Class of committed instruction
system.switch_cpus.commit.op_class_0::SimdAlu            0      0.00%     77.18% # Class of committed instruction
system.switch_cpus.commit.op_class_0::SimdCmp            0      0.00%     77.18% # Class of committed instruction
system.switch_cpus.commit.op_class_0::SimdCvt            0      0.00%     77.18% # Class of committed instruction
system.switch_cpus.commit.op_class_0::SimdMisc            0      0.00%     77.18% # Class of committed instruction
system.switch_cpus.commit.op_class_0::SimdMult            0      0.00%     77.18% # Class of committed instruction
system.switch_cpus.commit.op_class_0::SimdMultAcc            0      0.00%     77.18% # Class of committed instruction
system.switch_cpus.commit.op_class_0::SimdShift            0      0.00%     77.18% # Class of committed instruction
system.switch_cpus.commit.op_class_0::SimdShiftAcc            0      0.00%     77.18% # Class of committed instruction
system.switch_cpus.commit.op_class_0::SimdDiv            0      0.00%     77.18% # Class of committed instruction
system.switch_cpus.commit.op_class_0::SimdSqrt            0      0.00%     77.18% # Class of committed instruction
system.switch_cpus.commit.op_class_0::SimdFloatAdd            0      0.00%     77.18% # Class of committed instruction
system.switch_cpus.commit.op_class_0::SimdFloatAlu            0      0.00%     77.18% # Class of committed instruction
system.switch_cpus.commit.op_class_0::SimdFloatCmp            0      0.00%     77.18% # Class of committed instruction
system.switch_cpus.commit.op_class_0::SimdFloatCvt            0      0.00%     77.18% # Class of committed instruction
system.switch_cpus.commit.op_class_0::SimdFloatDiv            0      0.00%     77.18% # Class of committed instruction
system.switch_cpus.commit.op_class_0::SimdFloatMisc            0      0.00%     77.18% # Class of committed instruction
system.switch_cpus.commit.op_class_0::SimdFloatMult            0      0.00%     77.18% # Class of committed instruction
system.switch_cpus.commit.op_class_0::SimdFloatMultAcc            0      0.00%     77.18% # Class of committed instruction
system.switch_cpus.commit.op_class_0::SimdFloatSqrt            0      0.00%     77.18% # Class of committed instruction
system.switch_cpus.commit.op_class_0::SimdReduceAdd            0      0.00%     77.18% # Class of committed instruction
system.switch_cpus.commit.op_class_0::SimdReduceAlu            0      0.00%     77.18% # Class of committed instruction
system.switch_cpus.commit.op_class_0::SimdReduceCmp            0      0.00%     77.18% # Class of committed instruction
system.switch_cpus.commit.op_class_0::SimdFloatReduceAdd            0      0.00%     77.18% # Class of committed instruction
system.switch_cpus.commit.op_class_0::SimdFloatReduceCmp            0      0.00%     77.18% # Class of committed instruction
system.switch_cpus.commit.op_class_0::SimdAes            0      0.00%     77.18% # Class of committed instruction
system.switch_cpus.commit.op_class_0::SimdAesMix            0      0.00%     77.18% # Class of committed instruction
system.switch_cpus.commit.op_class_0::SimdSha1Hash            0      0.00%     77.18% # Class of committed instruction
system.switch_cpus.commit.op_class_0::SimdSha1Hash2            0      0.00%     77.18% # Class of committed instruction
system.switch_cpus.commit.op_class_0::SimdSha256Hash            0      0.00%     77.18% # Class of committed instruction
system.switch_cpus.commit.op_class_0::SimdSha256Hash2            0      0.00%     77.18% # Class of committed instruction
system.switch_cpus.commit.op_class_0::SimdShaSigma2            0      0.00%     77.18% # Class of committed instruction
system.switch_cpus.commit.op_class_0::SimdShaSigma3            0      0.00%     77.18% # Class of committed instruction
system.switch_cpus.commit.op_class_0::SimdPredAlu            0      0.00%     77.18% # Class of committed instruction
system.switch_cpus.commit.op_class_0::MemRead      4520333     22.15%     99.33% # Class of committed instruction
system.switch_cpus.commit.op_class_0::MemWrite       137216      0.67%    100.00% # Class of committed instruction
system.switch_cpus.commit.op_class_0::FloatMemRead            0      0.00%    100.00% # Class of committed instruction
system.switch_cpus.commit.op_class_0::FloatMemWrite            0      0.00%    100.00% # Class of committed instruction
system.switch_cpus.commit.op_class_0::IprAccess            0      0.00%    100.00% # Class of committed instruction
system.switch_cpus.commit.op_class_0::InstPrefetch            0      0.00%    100.00% # Class of committed instruction
system.switch_cpus.commit.op_class_0::total     20409919                       # Class of committed instruction
system.switch_cpus.commit.refs                4657549                       # Number of memory references committed
system.switch_cpus.commit.swp_count                 0                       # Number of s/w prefetches committed
system.switch_cpus.commit.vec_insts                 0                       # Number of committed Vector instructions.
system.switch_cpus.committedInsts            10000002                       # Number of Instructions Simulated
system.switch_cpus.committedOps              20409919                       # Number of Ops (including micro ops) Simulated
system.switch_cpus.cpi                       1.422115                       # CPI: Cycles Per Instruction
system.switch_cpus.cpi_total                 1.422115                       # CPI: Total CPI of All Threads
system.switch_cpus.decode.BlockedCycles      10613826                       # Number of cycles decode is blocked
system.switch_cpus.decode.DecodedInsts       20421121                       # Number of instructions handled by decode
system.switch_cpus.decode.IdleCycles           650035                       # Number of cycles decode is idle
system.switch_cpus.decode.RunCycles           2798228                       # Number of cycles decode is running
system.switch_cpus.decode.SquashCycles            249                       # Number of cycles decode is squashing
system.switch_cpus.decode.UnblockCycles        154377                       # Number of cycles decode is unblocking
system.switch_cpus.dtb.rdAccesses             4521940                       # TLB accesses on read requests
system.switch_cpus.dtb.rdMisses                  1700                       # TLB misses on read requests
system.switch_cpus.dtb.wrAccesses              137491                       # TLB accesses on write requests
system.switch_cpus.dtb.wrMisses                     3                       # TLB misses on write requests
system.switch_cpus.fetch.Branches             2603860                       # Number of branches that fetch encountered
system.switch_cpus.fetch.CacheLines            822929                       # Number of cache lines fetched
system.switch_cpus.fetch.Cycles              13392312                       # Number of cycles fetch has run and was not squashing or blocked
system.switch_cpus.fetch.IcacheSquashes            73                       # Number of outstanding Icache misses that were squashed
system.switch_cpus.fetch.Insts               10008678                       # Number of instructions fetch has processed
system.switch_cpus.fetch.MiscStallCycles            4                       # Number of cycles fetch has spent waiting on interrupts, or bad addresses, or out of MSHRs
system.switch_cpus.fetch.PendingTrapStallCycles          189                       # Number of stall cycles due to pending traps
system.switch_cpus.fetch.SquashCycles             498                       # Number of cycles fetch has spent squashing
system.switch_cpus.fetch.branchRate          0.183098                       # Number of branch fetches per cycle
system.switch_cpus.fetch.icacheStallCycles       823980                       # Number of cycles fetch is stalled on an Icache miss
system.switch_cpus.fetch.predictedBranches       411135                       # Number of branches that fetch has predicted taken
system.switch_cpus.fetch.rate                0.703788                       # Number of inst fetches per cycle
system.switch_cpus.fetch.rateDist::samples     14216734                       # Number of instructions fetched each cycle (Total)
system.switch_cpus.fetch.rateDist::mean      1.436599                       # Number of instructions fetched each cycle (Total)
system.switch_cpus.fetch.rateDist::stdev     2.930798                       # Number of instructions fetched each cycle (Total)
system.switch_cpus.fetch.rateDist::underflows            0      0.00%      0.00% # Number of instructions fetched each cycle (Total)
system.switch_cpus.fetch.rateDist::0         11030361     77.59%     77.59% # Number of instructions fetched each cycle (Total)
system.switch_cpus.fetch.rateDist::1           394912      2.78%     80.36% # Number of instructions fetched each cycle (Total)
system.switch_cpus.fetch.rateDist::2             1178      0.01%     80.37% # Number of instructions fetched each cycle (Total)
system.switch_cpus.fetch.rateDist::3           134484      0.95%     81.32% # Number of instructions fetched each cycle (Total)
system.switch_cpus.fetch.rateDist::4           332707      2.34%     83.66% # Number of instructions fetched each cycle (Total)
system.switch_cpus.fetch.rateDist::5            37405      0.26%     83.92% # Number of instructions fetched each cycle (Total)
system.switch_cpus.fetch.rateDist::6             4406      0.03%     83.95% # Number of instructions fetched each cycle (Total)
system.switch_cpus.fetch.rateDist::7           171505      1.21%     85.16% # Number of instructions fetched each cycle (Total)
system.switch_cpus.fetch.rateDist::8          2109776     14.84%    100.00% # Number of instructions fetched each cycle (Total)
system.switch_cpus.fetch.rateDist::overflows            0      0.00%    100.00% # Number of instructions fetched each cycle (Total)
system.switch_cpus.fetch.rateDist::min_value            0                       # Number of instructions fetched each cycle (Total)
system.switch_cpus.fetch.rateDist::max_value            8                       # Number of instructions fetched each cycle (Total)
system.switch_cpus.fetch.rateDist::total     14216734                       # Number of instructions fetched each cycle (Total)
system.switch_cpus.fp_regfile_writes               56                       # number of floating regfile writes
system.switch_cpus.idleCycles                    4420                       # Total number of cycles that the CPU has spent unscheduled due to idling
system.switch_cpus.iew.branchMispredicts          279                       # Number of branch mispredicts detected at execute
system.switch_cpus.iew.exec_branches          2602764                       # Number of branches executed
system.switch_cpus.iew.exec_nop                     0                       # number of nop insts executed
system.switch_cpus.iew.exec_rate             1.435567                       # Inst execution rate
system.switch_cpus.iew.exec_refs              4659493                       # number of memory reference insts executed
system.switch_cpus.iew.exec_stores             137491                       # Number of stores executed
system.switch_cpus.iew.exec_swp                     0                       # number of swp insts executed
system.switch_cpus.iew.iewBlockCycles            1906                       # Number of cycles IEW is blocking
system.switch_cpus.iew.iewDispLoadInsts       4522436                       # Number of dispatched load instructions
system.switch_cpus.iew.iewDispNonSpecInsts            0                       # Number of dispatched non-speculative instructions
system.switch_cpus.iew.iewDispSquashedInsts            4                       # Number of squashed instructions skipped by dispatch
system.switch_cpus.iew.iewDispStoreInsts       137762                       # Number of dispatched store instructions
system.switch_cpus.iew.iewDispatchedInsts     20418274                       # Number of instructions dispatched to IQ
system.switch_cpus.iew.iewExecLoadInsts       4522002                       # Number of load instructions executed
system.switch_cpus.iew.iewExecSquashedInsts          440                       # Number of squashed instructions skipped in execute
system.switch_cpus.iew.iewExecutedInsts      20415415                       # Number of executed instructions
system.switch_cpus.iew.iewIQFullEvents             19                       # Number of times the IQ has become full, causing a stall
system.switch_cpus.iew.iewIdleCycles                0                       # Number of cycles IEW is idle
system.switch_cpus.iew.iewLSQFullEvents        907221                       # Number of times the LSQ has become full, causing a stall
system.switch_cpus.iew.iewSquashCycles            249                       # Number of cycles IEW is squashing
system.switch_cpus.iew.iewUnblockCycles        907233                       # Number of cycles IEW is unblocking
system.switch_cpus.iew.lsq.thread0.blockedLoads            0                       # Number of blocked loads due to partial load-store forwarding
system.switch_cpus.iew.lsq.thread0.cacheBlocked           14                       # Number of times an access to memory failed due to the cache being blocked
system.switch_cpus.iew.lsq.thread0.forwLoads          200                       # Number of loads that had data forwarded from stores
system.switch_cpus.iew.lsq.thread0.ignoredResponses            8                       # Number of memory responses ignored because the instruction is squashed
system.switch_cpus.iew.lsq.thread0.invAddrLoads            0                       # Number of loads ignored due to an invalid address
system.switch_cpus.iew.lsq.thread0.invAddrSwpfs            0                       # Number of software prefetches ignored due to an invalid address
system.switch_cpus.iew.lsq.thread0.memOrderViolation           38                       # Number of memory ordering violations
system.switch_cpus.iew.lsq.thread0.rescheduledLoads            8                       # Number of loads that were rescheduled
system.switch_cpus.iew.lsq.thread0.squashedLoads         2081                       # Number of loads squashed
system.switch_cpus.iew.lsq.thread0.squashedStores          545                       # Number of stores squashed
system.switch_cpus.iew.memOrderViolationEvents           38                       # Number of memory order violations
system.switch_cpus.iew.predictedNotTakenIncorrect          254                       # Number of branches that were predicted not taken incorrectly
system.switch_cpus.iew.predictedTakenIncorrect           25                       # Number of branches that were predicted taken incorrectly
system.switch_cpus.iew.wb_consumers          24756180                       # num instructions consuming a value
system.switch_cpus.iew.wb_count              20414801                       # cumulative count of insts written-back
system.switch_cpus.iew.wb_fanout             0.697672                       # average fanout of values written-back
system.switch_cpus.iew.wb_producers          17271689                       # num instructions producing a value
system.switch_cpus.iew.wb_rate               1.435524                       # insts written-back per cycle
system.switch_cpus.iew.wb_sent               20414955                       # cumulative count of insts sent to commit
system.switch_cpus.int_regfile_reads         36034350                       # number of integer regfile reads
system.switch_cpus.int_regfile_writes        17674620                       # number of integer regfile writes
system.switch_cpus.ipc                       0.703178                       # IPC: Instructions Per Cycle
system.switch_cpus.ipc_total                 0.703178                       # IPC: Total IPC of All Threads
system.switch_cpus.iq.FU_type_0::No_OpClass          130      0.00%      0.00% # Type of FU issued
system.switch_cpus.iq.FU_type_0::IntAlu      15756064     77.18%     77.18% # Type of FU issued
system.switch_cpus.iq.FU_type_0::IntMult            0      0.00%     77.18% # Type of FU issued
system.switch_cpus.iq.FU_type_0::IntDiv             0      0.00%     77.18% # Type of FU issued
system.switch_cpus.iq.FU_type_0::FloatAdd            0      0.00%     77.18% # Type of FU issued
system.switch_cpus.iq.FU_type_0::FloatCmp            0      0.00%     77.18% # Type of FU issued
system.switch_cpus.iq.FU_type_0::FloatCvt            0      0.00%     77.18% # Type of FU issued
system.switch_cpus.iq.FU_type_0::FloatMult            0      0.00%     77.18% # Type of FU issued
system.switch_cpus.iq.FU_type_0::FloatMultAcc            0      0.00%     77.18% # Type of FU issued
system.switch_cpus.iq.FU_type_0::FloatDiv            0      0.00%     77.18% # Type of FU issued
system.switch_cpus.iq.FU_type_0::FloatMisc            0      0.00%     77.18% # Type of FU issued
system.switch_cpus.iq.FU_type_0::FloatSqrt            0      0.00%     77.18% # Type of FU issued
system.switch_cpus.iq.FU_type_0::SimdAdd            0      0.00%     77.18% # Type of FU issued
system.switch_cpus.iq.FU_type_0::SimdAddAcc            0      0.00%     77.18% # Type of FU issued
system.switch_cpus.iq.FU_type_0::SimdAlu            0      0.00%     77.18% # Type of FU issued
system.switch_cpus.iq.FU_type_0::SimdCmp            0      0.00%     77.18% # Type of FU issued
system.switch_cpus.iq.FU_type_0::SimdCvt            0      0.00%     77.18% # Type of FU issued
system.switch_cpus.iq.FU_type_0::SimdMisc            0      0.00%     77.18% # Type of FU issued
system.switch_cpus.iq.FU_type_0::SimdMult            0      0.00%     77.18% # Type of FU issued
system.switch_cpus.iq.FU_type_0::SimdMultAcc            0      0.00%     77.18% # Type of FU issued
system.switch_cpus.iq.FU_type_0::SimdShift            0      0.00%     77.18% # Type of FU issued
system.switch_cpus.iq.FU_type_0::SimdShiftAcc            0      0.00%     77.18% # Type of FU issued
system.switch_cpus.iq.FU_type_0::SimdDiv            0      0.00%     77.18% # Type of FU issued
system.switch_cpus.iq.FU_type_0::SimdSqrt            0      0.00%     77.18% # Type of FU issued
system.switch_cpus.iq.FU_type_0::SimdFloatAdd            0      0.00%     77.18% # Type of FU issued
system.switch_cpus.iq.FU_type_0::SimdFloatAlu            0      0.00%     77.18% # Type of FU issued
system.switch_cpus.iq.FU_type_0::SimdFloatCmp            0      0.00%     77.18% # Type of FU issued
system.switch_cpus.iq.FU_type_0::SimdFloatCvt            0      0.00%     77.18% # Type of FU issued
system.switch_cpus.iq.FU_type_0::SimdFloatDiv            0      0.00%     77.18% # Type of FU issued
system.switch_cpus.iq.FU_type_0::SimdFloatMisc            0      0.00%     77.18% # Type of FU issued
system.switch_cpus.iq.FU_type_0::SimdFloatMult            0      0.00%     77.18% # Type of FU issued
system.switch_cpus.iq.FU_type_0::SimdFloatMultAcc            0      0.00%     77.18% # Type of FU issued
system.switch_cpus.iq.FU_type_0::SimdFloatSqrt            0      0.00%     77.18% # Type of FU issued
system.switch_cpus.iq.FU_type_0::SimdReduceAdd            0      0.00%     77.18% # Type of FU issued
system.switch_cpus.iq.FU_type_0::SimdReduceAlu            0      0.00%     77.18% # Type of FU issued
system.switch_cpus.iq.FU_type_0::SimdReduceCmp            0      0.00%     77.18% # Type of FU issued
system.switch_cpus.iq.FU_type_0::SimdFloatReduceAdd            0      0.00%     77.18% # Type of FU issued
system.switch_cpus.iq.FU_type_0::SimdFloatReduceCmp            0      0.00%     77.18% # Type of FU issued
system.switch_cpus.iq.FU_type_0::SimdAes            0      0.00%     77.18% # Type of FU issued
system.switch_cpus.iq.FU_type_0::SimdAesMix            0      0.00%     77.18% # Type of FU issued
system.switch_cpus.iq.FU_type_0::SimdSha1Hash            0      0.00%     77.18% # Type of FU issued
system.switch_cpus.iq.FU_type_0::SimdSha1Hash2            0      0.00%     77.18% # Type of FU issued
system.switch_cpus.iq.FU_type_0::SimdSha256Hash            0      0.00%     77.18% # Type of FU issued
system.switch_cpus.iq.FU_type_0::SimdSha256Hash2            0      0.00%     77.18% # Type of FU issued
system.switch_cpus.iq.FU_type_0::SimdShaSigma2            0      0.00%     77.18% # Type of FU issued
system.switch_cpus.iq.FU_type_0::SimdShaSigma3            0      0.00%     77.18% # Type of FU issued
system.switch_cpus.iq.FU_type_0::SimdPredAlu            0      0.00%     77.18% # Type of FU issued
system.switch_cpus.iq.FU_type_0::MemRead      4522127     22.15%     99.33% # Type of FU issued
system.switch_cpus.iq.FU_type_0::MemWrite       137538      0.67%    100.00% # Type of FU issued
system.switch_cpus.iq.FU_type_0::FloatMemRead            0      0.00%    100.00% # Type of FU issued
system.switch_cpus.iq.FU_type_0::FloatMemWrite            0      0.00%    100.00% # Type of FU issued
system.switch_cpus.iq.FU_type_0::IprAccess            0      0.00%    100.00% # Type of FU issued
system.switch_cpus.iq.FU_type_0::InstPrefetch            0      0.00%    100.00% # Type of FU issued
system.switch_cpus.iq.FU_type_0::total       20415859                       # Type of FU issued
system.switch_cpus.iq.fp_alu_accesses               0                       # Number of floating point alu accesses
system.switch_cpus.iq.fp_inst_queue_reads            0                       # Number of floating instruction queue reads
system.switch_cpus.iq.fp_inst_queue_wakeup_accesses            0                       # Number of floating instruction queue wakeup accesses
system.switch_cpus.iq.fp_inst_queue_writes            0                       # Number of floating instruction queue writes
system.switch_cpus.iq.fu_busy_cnt              412122                       # FU busy when requested
system.switch_cpus.iq.fu_busy_rate           0.020186                       # FU busy rate (busy events/executed inst)
system.switch_cpus.iq.fu_full::No_OpClass            0      0.00%      0.00% # attempts to use FU when none available
system.switch_cpus.iq.fu_full::IntAlu          412071     99.99%     99.99% # attempts to use FU when none available
system.switch_cpus.iq.fu_full::IntMult              0      0.00%     99.99% # attempts to use FU when none available
system.switch_cpus.iq.fu_full::IntDiv               0      0.00%     99.99% # attempts to use FU when none available
system.switch_cpus.iq.fu_full::FloatAdd             0      0.00%     99.99% # attempts to use FU when none available
system.switch_cpus.iq.fu_full::FloatCmp             0      0.00%     99.99% # attempts to use FU when none available
system.switch_cpus.iq.fu_full::FloatCvt             0      0.00%     99.99% # attempts to use FU when none available
system.switch_cpus.iq.fu_full::FloatMult            0      0.00%     99.99% # attempts to use FU when none available
system.switch_cpus.iq.fu_full::FloatMultAcc            0      0.00%     99.99% # attempts to use FU when none available
system.switch_cpus.iq.fu_full::FloatDiv             0      0.00%     99.99% # attempts to use FU when none available
system.switch_cpus.iq.fu_full::FloatMisc            0      0.00%     99.99% # attempts to use FU when none available
system.switch_cpus.iq.fu_full::FloatSqrt            0      0.00%     99.99% # attempts to use FU when none available
system.switch_cpus.iq.fu_full::SimdAdd              0      0.00%     99.99% # attempts to use FU when none available
system.switch_cpus.iq.fu_full::SimdAddAcc            0      0.00%     99.99% # attempts to use FU when none available
system.switch_cpus.iq.fu_full::SimdAlu              0      0.00%     99.99% # attempts to use FU when none available
system.switch_cpus.iq.fu_full::SimdCmp              0      0.00%     99.99% # attempts to use FU when none available
system.switch_cpus.iq.fu_full::SimdCvt              0      0.00%     99.99% # attempts to use FU when none available
system.switch_cpus.iq.fu_full::SimdMisc             0      0.00%     99.99% # attempts to use FU when none available
system.switch_cpus.iq.fu_full::SimdMult             0      0.00%     99.99% # attempts to use FU when none available
system.switch_cpus.iq.fu_full::SimdMultAcc            0      0.00%     99.99% # attempts to use FU when none available
system.switch_cpus.iq.fu_full::SimdShift            0      0.00%     99.99% # attempts to use FU when none available
system.switch_cpus.iq.fu_full::SimdShiftAcc            0      0.00%     99.99% # attempts to use FU when none available
system.switch_cpus.iq.fu_full::SimdDiv              0      0.00%     99.99% # attempts to use FU when none available
system.switch_cpus.iq.fu_full::SimdSqrt             0      0.00%     99.99% # attempts to use FU when none available
system.switch_cpus.iq.fu_full::SimdFloatAdd            0      0.00%     99.99% # attempts to use FU when none available
system.switch_cpus.iq.fu_full::SimdFloatAlu            0      0.00%     99.99% # attempts to use FU when none available
system.switch_cpus.iq.fu_full::SimdFloatCmp            0      0.00%     99.99% # attempts to use FU when none available
system.switch_cpus.iq.fu_full::SimdFloatCvt            0      0.00%     99.99% # attempts to use FU when none available
system.switch_cpus.iq.fu_full::SimdFloatDiv            0      0.00%     99.99% # attempts to use FU when none available
system.switch_cpus.iq.fu_full::SimdFloatMisc            0      0.00%     99.99% # attempts to use FU when none available
system.switch_cpus.iq.fu_full::SimdFloatMult            0      0.00%     99.99% # attempts to use FU when none available
system.switch_cpus.iq.fu_full::SimdFloatMultAcc            0      0.00%     99.99% # attempts to use FU when none available
system.switch_cpus.iq.fu_full::SimdFloatSqrt            0      0.00%     99.99% # attempts to use FU when none available
system.switch_cpus.iq.fu_full::SimdReduceAdd            0      0.00%     99.99% # attempts to use FU when none available
system.switch_cpus.iq.fu_full::SimdReduceAlu            0      0.00%     99.99% # attempts to use FU when none available
system.switch_cpus.iq.fu_full::SimdReduceCmp            0      0.00%     99.99% # attempts to use FU when none available
system.switch_cpus.iq.fu_full::SimdFloatReduceAdd            0      0.00%     99.99% # attempts to use FU when none available
system.switch_cpus.iq.fu_full::SimdFloatReduceCmp            0      0.00%     99.99% # attempts to use FU when none available
system.switch_cpus.iq.fu_full::SimdAes              0      0.00%     99.99% # attempts to use FU when none available
system.switch_cpus.iq.fu_full::SimdAesMix            0      0.00%     99.99% # attempts to use FU when none available
system.switch_cpus.iq.fu_full::SimdSha1Hash            0      0.00%     99.99% # attempts to use FU when none available
system.switch_cpus.iq.fu_full::SimdSha1Hash2            0      0.00%     99.99% # attempts to use FU when none available
system.switch_cpus.iq.fu_full::SimdSha256Hash            0      0.00%     99.99% # attempts to use FU when none available
system.switch_cpus.iq.fu_full::SimdSha256Hash2            0      0.00%     99.99% # attempts to use FU when none available
system.switch_cpus.iq.fu_full::SimdShaSigma2            0      0.00%     99.99% # attempts to use FU when none available
system.switch_cpus.iq.fu_full::SimdShaSigma3            0      0.00%     99.99% # attempts to use FU when none available
system.switch_cpus.iq.fu_full::SimdPredAlu            0      0.00%     99.99% # attempts to use FU when none available
system.switch_cpus.iq.fu_full::MemRead             21      0.01%     99.99% # attempts to use FU when none available
system.switch_cpus.iq.fu_full::MemWrite            30      0.01%    100.00% # attempts to use FU when none available
system.switch_cpus.iq.fu_full::FloatMemRead            0      0.00%    100.00% # attempts to use FU when none available
system.switch_cpus.iq.fu_full::FloatMemWrite            0      0.00%    100.00% # attempts to use FU when none available
system.switch_cpus.iq.fu_full::IprAccess            0      0.00%    100.00% # attempts to use FU when none available
system.switch_cpus.iq.fu_full::InstPrefetch            0      0.00%    100.00% # attempts to use FU when none available
system.switch_cpus.iq.int_alu_accesses       20827851                       # Number of integer alu accesses
system.switch_cpus.iq.int_inst_queue_reads     55460617                       # Number of integer instruction queue reads
system.switch_cpus.iq.int_inst_queue_wakeup_accesses     20414801                       # Number of integer instruction queue wakeup accesses
system.switch_cpus.iq.int_inst_queue_writes     20426560                       # Number of integer instruction queue writes
system.switch_cpus.iq.iqInstsAdded           20418274                       # Number of instructions added to the IQ (excludes non-spec)
system.switch_cpus.iq.iqInstsIssued          20415859                       # Number of instructions issued
system.switch_cpus.iq.iqSquashedInstsExamined         8248                       # Number of squashed instructions iterated over during squash; mainly for profiling
system.switch_cpus.iq.iqSquashedInstsIssued           47                       # Number of squashed instructions issued
system.switch_cpus.iq.iqSquashedOperandsExamined        12581                       # Number of squashed operands that are examined and possibly removed from graph
system.switch_cpus.iq.issued_per_cycle::samples     14216734                       # Number of insts issued each cycle
system.switch_cpus.iq.issued_per_cycle::mean     1.436044                       # Number of insts issued each cycle
system.switch_cpus.iq.issued_per_cycle::stdev     2.429049                       # Number of insts issued each cycle
system.switch_cpus.iq.issued_per_cycle::underflows            0      0.00%      0.00% # Number of insts issued each cycle
system.switch_cpus.iq.issued_per_cycle::0      9614709     67.63%     67.63% # Number of insts issued each cycle
system.switch_cpus.iq.issued_per_cycle::1       742070      5.22%     72.85% # Number of insts issued each cycle
system.switch_cpus.iq.issued_per_cycle::2       385989      2.72%     75.56% # Number of insts issued each cycle
system.switch_cpus.iq.issued_per_cycle::3       440782      3.10%     78.66% # Number of insts issued each cycle
system.switch_cpus.iq.issued_per_cycle::4       579053      4.07%     82.74% # Number of insts issued each cycle
system.switch_cpus.iq.issued_per_cycle::5       758028      5.33%     88.07% # Number of insts issued each cycle
system.switch_cpus.iq.issued_per_cycle::6       808615      5.69%     93.76% # Number of insts issued each cycle
system.switch_cpus.iq.issued_per_cycle::7       478481      3.37%     97.12% # Number of insts issued each cycle
system.switch_cpus.iq.issued_per_cycle::8       409007      2.88%    100.00% # Number of insts issued each cycle
system.switch_cpus.iq.issued_per_cycle::overflows            0      0.00%    100.00% # Number of insts issued each cycle
system.switch_cpus.iq.issued_per_cycle::min_value            0                       # Number of insts issued each cycle
system.switch_cpus.iq.issued_per_cycle::max_value            8                       # Number of insts issued each cycle
system.switch_cpus.iq.issued_per_cycle::total     14216734                       # Number of insts issued each cycle
system.switch_cpus.iq.rate                   1.435598                       # Inst issue rate
system.switch_cpus.iq.vec_alu_accesses              0                       # Number of vector alu accesses
system.switch_cpus.iq.vec_inst_queue_reads            0                       # Number of vector instruction queue reads
system.switch_cpus.iq.vec_inst_queue_wakeup_accesses            0                       # Number of vector instruction queue wakeup accesses
system.switch_cpus.iq.vec_inst_queue_writes            0                       # Number of vector instruction queue writes
system.switch_cpus.itb.rdAccesses                   0                       # TLB accesses on read requests
system.switch_cpus.itb.rdMisses                     0                       # TLB misses on read requests
system.switch_cpus.itb.wrAccesses              822956                       # TLB accesses on write requests
system.switch_cpus.itb.wrMisses                    31                       # TLB misses on write requests
system.switch_cpus.memDep0.conflictingLoads          138                       # Number of conflicting loads.
system.switch_cpus.memDep0.conflictingStores           27                       # Number of conflicting stores.
system.switch_cpus.memDep0.insertedLoads      4522436                       # Number of loads inserted to the mem dependence unit.
system.switch_cpus.memDep0.insertedStores       137762                       # Number of stores inserted to the mem dependence unit.
system.switch_cpus.misc_regfile_reads         9865470                       # number of misc regfile reads
system.switch_cpus.misc_regfile_writes              1                       # number of misc regfile writes
system.switch_cpus.numCycles                 14221154                       # number of cpu cycles simulated
system.switch_cpus.numWorkItemsCompleted            0                       # number of work items this cpu completed
system.switch_cpus.numWorkItemsStarted              0                       # number of work items this cpu started
system.switch_cpus.rename.BlockCycles          912011                       # Number of cycles rename is blocking
system.switch_cpus.rename.CommittedMaps      23697321                       # Number of HB maps that are committed
system.switch_cpus.rename.IQFullEvents          45510                       # Number of times rename has blocked due to IQ full
system.switch_cpus.rename.IdleCycles           748188                       # Number of cycles rename is idle
system.switch_cpus.rename.LQFullEvents        9645784                       # Number of times rename has blocked due to LQ full
system.switch_cpus.rename.ROBFullEvents           309                       # Number of times rename has blocked due to ROB full
system.switch_cpus.rename.RenameLookups      58929303                       # Number of register rename lookups that rename has made
system.switch_cpus.rename.RenamedInsts       20419924                       # Number of instructions processed by rename
system.switch_cpus.rename.RenamedOperands     23708428                       # Number of destination operands rename has renamed
system.switch_cpus.rename.RunCycles           2854405                       # Number of cycles rename is running
system.switch_cpus.rename.SquashCycles            249                       # Number of cycles rename is squashing
system.switch_cpus.rename.UnblockCycles       9701862                       # Number of cycles rename is unblocking
system.switch_cpus.rename.UndoneMaps            10954                       # Number of HB maps that are undone due to squashing
system.switch_cpus.rename.int_rename_lookups     36043734                       # Number of integer rename lookups
system.switch_cpus.rename.serializeStallCycles            0                       # count of cycles rename stalled for serializing inst
system.switch_cpus.rename.serializingInsts            0                       # count of serializing insts renamed
system.switch_cpus.rename.skidInsts           1092383                       # count of insts added to the skid buffer
system.switch_cpus.rename.tempSerializingInsts            0                       # count of temporary serializing insts renamed
system.switch_cpus.rob.rob_reads             32266380                       # The number of ROB reads
system.switch_cpus.rob.rob_writes            40837863                       # The number of ROB writes
system.switch_cpus.timesIdled                      37                       # Number of times that the entire CPU went into an idle state and unscheduled itself
system.tol2bus.snoop_filter.hit_multi_requests            0                       # Number of requests hitting in the snoop filter with multiple (>1) holders of the requested data.
system.tol2bus.snoop_filter.hit_multi_snoops            0                       # Number of snoops hitting in the snoop filter with multiple (>1) holders of the requested data.
system.tol2bus.snoop_filter.hit_single_requests       101830                       # Number of requests hitting in the snoop filter with a single holder of the requested data.
system.tol2bus.snoop_filter.hit_single_snoops        68874                       # Number of snoops hitting in the snoop filter with a single holder of the requested data.
system.tol2bus.snoop_filter.tot_requests       204729                       # Total number of requests made to the snoop filter.
system.tol2bus.snoop_filter.tot_snoops          68874                       # Total number of snoops made to the snoop filter.
system.membus.pwrStateResidencyTicks::UNDEFINED 805417379257500                       # Cumulative time (in ticks) in various power states
system.membus.trans_dist::ReadResp              93475                       # Transaction distribution
system.membus.trans_dist::WritebackDirty           27                       # Transaction distribution
system.membus.trans_dist::CleanEvict            89046                       # Transaction distribution
system.membus.trans_dist::ReadExReq                 4                       # Transaction distribution
system.membus.trans_dist::ReadExResp                4                       # Transaction distribution
system.membus.trans_dist::ReadSharedReq         93475                       # Transaction distribution
system.membus.pkt_count_system.l2.mem_side::system.mem_ctrls.port       276031                       # Packet count per connected master and slave (bytes)
system.membus.pkt_count_system.l2.mem_side::total       276031                       # Packet count per connected master and slave (bytes)
system.membus.pkt_count::total                 276031                       # Packet count per connected master and slave (bytes)
system.membus.pkt_size_system.l2.mem_side::system.mem_ctrls.port      5984384                       # Cumulative packet size per connected master and slave (bytes)
system.membus.pkt_size_system.l2.mem_side::total      5984384                       # Cumulative packet size per connected master and slave (bytes)
system.membus.pkt_size::total                 5984384                       # Cumulative packet size per connected master and slave (bytes)
system.membus.snoops                                0                       # Total snoops (count)
system.membus.snoopTraffic                          0                       # Total snoop traffic (bytes)
system.membus.snoop_fanout::samples             93479                       # Request fanout histogram
system.membus.snoop_fanout::mean                    0                       # Request fanout histogram
system.membus.snoop_fanout::stdev                   0                       # Request fanout histogram
system.membus.snoop_fanout::underflows              0      0.00%      0.00% # Request fanout histogram
system.membus.snoop_fanout::0                   93479    100.00%    100.00% # Request fanout histogram
system.membus.snoop_fanout::1                       0      0.00%    100.00% # Request fanout histogram
system.membus.snoop_fanout::overflows               0      0.00%    100.00% # Request fanout histogram
system.membus.snoop_fanout::min_value               0                       # Request fanout histogram
system.membus.snoop_fanout::max_value               0                       # Request fanout histogram
system.membus.snoop_fanout::total               93479                       # Request fanout histogram
system.membus.reqLayer2.occupancy           207062500                       # Layer occupancy (ticks)
system.membus.reqLayer2.utilization               2.9                       # Layer utilization (%)
system.membus.respLayer1.occupancy          496407750                       # Layer occupancy (ticks)
system.membus.respLayer1.utilization              7.0                       # Layer utilization (%)
system.switch_cpus.pwrStateResidencyTicks::OFF   7110587500                       # Cumulative time (in ticks) in various power states
system.switch_cpus.dtb.walker.pwrStateResidencyTicks::UNDEFINED 805417379257500                       # Cumulative time (in ticks) in various power states
system.switch_cpus.itb.walker.pwrStateResidencyTicks::UNDEFINED 805417379257500                       # Cumulative time (in ticks) in various power states
system.tol2bus.pwrStateResidencyTicks::UNDEFINED 805417379257500                       # Cumulative time (in ticks) in various power states
system.tol2bus.trans_dist::ReadResp            102892                       # Transaction distribution
system.tol2bus.trans_dist::WritebackDirty           72                       # Transaction distribution
system.tol2bus.trans_dist::CleanEvict          191158                       # Transaction distribution
system.tol2bus.trans_dist::ReadExReq                6                       # Transaction distribution
system.tol2bus.trans_dist::ReadExResp               6                       # Transaction distribution
system.tol2bus.trans_dist::ReadCleanReq            44                       # Transaction distribution
system.tol2bus.trans_dist::ReadSharedReq       102849                       # Transaction distribution
system.tol2bus.pkt_count_system.cpu.icache.mem_side::system.l2.cpu_side           88                       # Packet count per connected master and slave (bytes)
system.tol2bus.pkt_count_system.cpu.dcache.mem_side::system.l2.cpu_side       307539                       # Packet count per connected master and slave (bytes)
system.tol2bus.pkt_count::total                307627                       # Packet count per connected master and slave (bytes)
system.tol2bus.pkt_size_system.cpu.icache.mem_side::system.l2.cpu_side         2816                       # Cumulative packet size per connected master and slave (bytes)
system.tol2bus.pkt_size_system.cpu.dcache.mem_side::system.l2.cpu_side      6585536                       # Cumulative packet size per connected master and slave (bytes)
system.tol2bus.pkt_size::total                6588352                       # Cumulative packet size per connected master and slave (bytes)
system.tol2bus.snoops                           89400                       # Total snoops (count)
system.tol2bus.snoopTraffic                      1728                       # Total snoop traffic (bytes)
system.tol2bus.snoop_fanout::samples           192299                       # Request fanout histogram
system.tol2bus.snoop_fanout::mean            0.358161                       # Request fanout histogram
system.tol2bus.snoop_fanout::stdev           0.479461                       # Request fanout histogram
system.tol2bus.snoop_fanout::underflows             0      0.00%      0.00% # Request fanout histogram
system.tol2bus.snoop_fanout::0                 123425     64.18%     64.18% # Request fanout histogram
system.tol2bus.snoop_fanout::1                  68874     35.82%    100.00% # Request fanout histogram
system.tol2bus.snoop_fanout::2                      0      0.00%    100.00% # Request fanout histogram
system.tol2bus.snoop_fanout::3                      0      0.00%    100.00% # Request fanout histogram
system.tol2bus.snoop_fanout::4                      0      0.00%    100.00% # Request fanout histogram
system.tol2bus.snoop_fanout::overflows              0      0.00%    100.00% # Request fanout histogram
system.tol2bus.snoop_fanout::min_value              0                       # Request fanout histogram
system.tol2bus.snoop_fanout::max_value              1                       # Request fanout histogram
system.tol2bus.snoop_fanout::total             192299                       # Request fanout histogram
system.tol2bus.reqLayer0.occupancy          102406500                       # Layer occupancy (ticks)
system.tol2bus.reqLayer0.utilization              1.4                       # Layer utilization (%)
system.tol2bus.respLayer1.occupancy         154275000                       # Layer occupancy (ticks)
system.tol2bus.respLayer1.utilization             2.2                       # Layer utilization (%)
system.tol2bus.respLayer0.occupancy             63000                       # Layer occupancy (ticks)
system.tol2bus.respLayer0.utilization             0.0                       # Layer utilization (%)
system.voltage_domain.voltage                       1                       # Voltage in Volts
system.clk_domain.clock                          1000                       # Clock period in ticks
system.l2.pwrStateResidencyTicks::UNDEFINED 805417379257500                       # Cumulative time (in ticks) in various power states
system.l2.demand_hits::.switch_cpus.data         9419                       # number of demand (read+write) hits
system.l2.demand_hits::total                     9419                       # number of demand (read+write) hits
system.l2.overall_hits::.switch_cpus.data         9419                       # number of overall hits
system.l2.overall_hits::total                    9419                       # number of overall hits
system.l2.demand_misses::.cpu.inst                  2                       # number of demand (read+write) misses
system.l2.demand_misses::.cpu.data                  4                       # number of demand (read+write) misses
system.l2.demand_misses::.switch_cpus.inst           42                       # number of demand (read+write) misses
system.l2.demand_misses::.switch_cpus.data        93432                       # number of demand (read+write) misses
system.l2.demand_misses::total                  93480                       # number of demand (read+write) misses
system.l2.overall_misses::.cpu.inst                 2                       # number of overall misses
system.l2.overall_misses::.cpu.data                 4                       # number of overall misses
system.l2.overall_misses::.switch_cpus.inst           42                       # number of overall misses
system.l2.overall_misses::.switch_cpus.data        93432                       # number of overall misses
system.l2.overall_misses::total                 93480                       # number of overall misses
system.l2.demand_miss_latency::.switch_cpus.inst      3646000                       # number of demand (read+write) miss cycles
system.l2.demand_miss_latency::.switch_cpus.data   7114998000                       # number of demand (read+write) miss cycles
system.l2.demand_miss_latency::total       7118644000                       # number of demand (read+write) miss cycles
system.l2.overall_miss_latency::.switch_cpus.inst      3646000                       # number of overall miss cycles
system.l2.overall_miss_latency::.switch_cpus.data   7114998000                       # number of overall miss cycles
system.l2.overall_miss_latency::total      7118644000                       # number of overall miss cycles
system.l2.demand_accesses::.cpu.inst                2                       # number of demand (read+write) accesses
system.l2.demand_accesses::.cpu.data                4                       # number of demand (read+write) accesses
system.l2.demand_accesses::.switch_cpus.inst           42                       # number of demand (read+write) accesses
system.l2.demand_accesses::.switch_cpus.data       102851                       # number of demand (read+write) accesses
system.l2.demand_accesses::total               102899                       # number of demand (read+write) accesses
system.l2.overall_accesses::.cpu.inst               2                       # number of overall (read+write) accesses
system.l2.overall_accesses::.cpu.data               4                       # number of overall (read+write) accesses
system.l2.overall_accesses::.switch_cpus.inst           42                       # number of overall (read+write) accesses
system.l2.overall_accesses::.switch_cpus.data       102851                       # number of overall (read+write) accesses
system.l2.overall_accesses::total              102899                       # number of overall (read+write) accesses
system.l2.demand_miss_rate::.cpu.inst               1                       # miss rate for demand accesses
system.l2.demand_miss_rate::.cpu.data               1                       # miss rate for demand accesses
system.l2.demand_miss_rate::.switch_cpus.inst            1                       # miss rate for demand accesses
system.l2.demand_miss_rate::.switch_cpus.data     0.908421                       # miss rate for demand accesses
system.l2.demand_miss_rate::total            0.908464                       # miss rate for demand accesses
system.l2.overall_miss_rate::.cpu.inst              1                       # miss rate for overall accesses
system.l2.overall_miss_rate::.cpu.data              1                       # miss rate for overall accesses
system.l2.overall_miss_rate::.switch_cpus.inst            1                       # miss rate for overall accesses
system.l2.overall_miss_rate::.switch_cpus.data     0.908421                       # miss rate for overall accesses
system.l2.overall_miss_rate::total           0.908464                       # miss rate for overall accesses
system.l2.demand_avg_miss_latency::.switch_cpus.inst 86809.523810                       # average overall miss latency
system.l2.demand_avg_miss_latency::.switch_cpus.data 76151.618289                       # average overall miss latency
system.l2.demand_avg_miss_latency::total 76151.519042                       # average overall miss latency
system.l2.overall_avg_miss_latency::.switch_cpus.inst 86809.523810                       # average overall miss latency
system.l2.overall_avg_miss_latency::.switch_cpus.data 76151.618289                       # average overall miss latency
system.l2.overall_avg_miss_latency::total 76151.519042                       # average overall miss latency
system.l2.blocked_cycles::no_mshrs                  0                       # number of cycles access was blocked
system.l2.blocked_cycles::no_targets                0                       # number of cycles access was blocked
system.l2.blocked::no_mshrs                         0                       # number of cycles access was blocked
system.l2.blocked::no_targets                       0                       # number of cycles access was blocked
system.l2.avg_blocked_cycles::no_mshrs            nan                       # average number of cycles each access was blocked
system.l2.avg_blocked_cycles::no_targets          nan                       # average number of cycles each access was blocked
system.l2.writebacks::.writebacks                  27                       # number of writebacks
system.l2.writebacks::total                        27                       # number of writebacks
system.l2.demand_mshr_misses::.switch_cpus.inst           42                       # number of demand (read+write) MSHR misses
system.l2.demand_mshr_misses::.switch_cpus.data        93432                       # number of demand (read+write) MSHR misses
system.l2.demand_mshr_misses::total             93474                       # number of demand (read+write) MSHR misses
system.l2.overall_mshr_misses::.switch_cpus.inst           42                       # number of overall MSHR misses
system.l2.overall_mshr_misses::.switch_cpus.data        93432                       # number of overall MSHR misses
system.l2.overall_mshr_misses::total            93474                       # number of overall MSHR misses
system.l2.demand_mshr_miss_latency::.switch_cpus.inst      3226000                       # number of demand (read+write) MSHR miss cycles
system.l2.demand_mshr_miss_latency::.switch_cpus.data   6180688000                       # number of demand (read+write) MSHR miss cycles
system.l2.demand_mshr_miss_latency::total   6183914000                       # number of demand (read+write) MSHR miss cycles
system.l2.overall_mshr_miss_latency::.switch_cpus.inst      3226000                       # number of overall MSHR miss cycles
system.l2.overall_mshr_miss_latency::.switch_cpus.data   6180688000                       # number of overall MSHR miss cycles
system.l2.overall_mshr_miss_latency::total   6183914000                       # number of overall MSHR miss cycles
system.l2.demand_mshr_miss_rate::.switch_cpus.inst            1                       # mshr miss rate for demand accesses
system.l2.demand_mshr_miss_rate::.switch_cpus.data     0.908421                       # mshr miss rate for demand accesses
system.l2.demand_mshr_miss_rate::total       0.908405                       # mshr miss rate for demand accesses
system.l2.overall_mshr_miss_rate::.switch_cpus.inst            1                       # mshr miss rate for overall accesses
system.l2.overall_mshr_miss_rate::.switch_cpus.data     0.908421                       # mshr miss rate for overall accesses
system.l2.overall_mshr_miss_rate::total      0.908405                       # mshr miss rate for overall accesses
system.l2.demand_avg_mshr_miss_latency::.switch_cpus.inst 76809.523810                       # average overall mshr miss latency
system.l2.demand_avg_mshr_miss_latency::.switch_cpus.data 66151.725319                       # average overall mshr miss latency
system.l2.demand_avg_mshr_miss_latency::total 66156.514111                       # average overall mshr miss latency
system.l2.overall_avg_mshr_miss_latency::.switch_cpus.inst 76809.523810                       # average overall mshr miss latency
system.l2.overall_avg_mshr_miss_latency::.switch_cpus.data 66151.725319                       # average overall mshr miss latency
system.l2.overall_avg_mshr_miss_latency::total 66156.514111                       # average overall mshr miss latency
system.l2.replacements                          89400                       # number of replacements
system.l2.WritebackDirty_hits::.writebacks           45                       # number of WritebackDirty hits
system.l2.WritebackDirty_hits::total               45                       # number of WritebackDirty hits
system.l2.WritebackDirty_accesses::.writebacks           45                       # number of WritebackDirty accesses(hits+misses)
system.l2.WritebackDirty_accesses::total           45                       # number of WritebackDirty accesses(hits+misses)
system.l2.CleanEvict_mshr_misses::.writebacks        68548                       # number of CleanEvict MSHR misses
system.l2.CleanEvict_mshr_misses::total         68548                       # number of CleanEvict MSHR misses
system.l2.CleanEvict_mshr_miss_rate::.writebacks          inf                       # mshr miss rate for CleanEvict accesses
system.l2.CleanEvict_mshr_miss_rate::total          inf                       # mshr miss rate for CleanEvict accesses
system.l2.ReadExReq_hits::.switch_cpus.data            2                       # number of ReadExReq hits
system.l2.ReadExReq_hits::total                     2                       # number of ReadExReq hits
system.l2.ReadExReq_misses::.switch_cpus.data            4                       # number of ReadExReq misses
system.l2.ReadExReq_misses::total                   4                       # number of ReadExReq misses
system.l2.ReadExReq_miss_latency::.switch_cpus.data       227000                       # number of ReadExReq miss cycles
system.l2.ReadExReq_miss_latency::total        227000                       # number of ReadExReq miss cycles
system.l2.ReadExReq_accesses::.switch_cpus.data            6                       # number of ReadExReq accesses(hits+misses)
system.l2.ReadExReq_accesses::total                 6                       # number of ReadExReq accesses(hits+misses)
system.l2.ReadExReq_miss_rate::.switch_cpus.data     0.666667                       # miss rate for ReadExReq accesses
system.l2.ReadExReq_miss_rate::total         0.666667                       # miss rate for ReadExReq accesses
system.l2.ReadExReq_avg_miss_latency::.switch_cpus.data        56750                       # average ReadExReq miss latency
system.l2.ReadExReq_avg_miss_latency::total        56750                       # average ReadExReq miss latency
system.l2.ReadExReq_mshr_misses::.switch_cpus.data            4                       # number of ReadExReq MSHR misses
system.l2.ReadExReq_mshr_misses::total              4                       # number of ReadExReq MSHR misses
system.l2.ReadExReq_mshr_miss_latency::.switch_cpus.data       187000                       # number of ReadExReq MSHR miss cycles
system.l2.ReadExReq_mshr_miss_latency::total       187000                       # number of ReadExReq MSHR miss cycles
system.l2.ReadExReq_mshr_miss_rate::.switch_cpus.data     0.666667                       # mshr miss rate for ReadExReq accesses
system.l2.ReadExReq_mshr_miss_rate::total     0.666667                       # mshr miss rate for ReadExReq accesses
system.l2.ReadExReq_avg_mshr_miss_latency::.switch_cpus.data        46750                       # average ReadExReq mshr miss latency
system.l2.ReadExReq_avg_mshr_miss_latency::total        46750                       # average ReadExReq mshr miss latency
system.l2.ReadCleanReq_misses::.cpu.inst            2                       # number of ReadCleanReq misses
system.l2.ReadCleanReq_misses::.switch_cpus.inst           42                       # number of ReadCleanReq misses
system.l2.ReadCleanReq_misses::total               44                       # number of ReadCleanReq misses
system.l2.ReadCleanReq_miss_latency::.switch_cpus.inst      3646000                       # number of ReadCleanReq miss cycles
system.l2.ReadCleanReq_miss_latency::total      3646000                       # number of ReadCleanReq miss cycles
system.l2.ReadCleanReq_accesses::.cpu.inst            2                       # number of ReadCleanReq accesses(hits+misses)
system.l2.ReadCleanReq_accesses::.switch_cpus.inst           42                       # number of ReadCleanReq accesses(hits+misses)
system.l2.ReadCleanReq_accesses::total             44                       # number of ReadCleanReq accesses(hits+misses)
system.l2.ReadCleanReq_miss_rate::.cpu.inst            1                       # miss rate for ReadCleanReq accesses
system.l2.ReadCleanReq_miss_rate::.switch_cpus.inst            1                       # miss rate for ReadCleanReq accesses
system.l2.ReadCleanReq_miss_rate::total             1                       # miss rate for ReadCleanReq accesses
system.l2.ReadCleanReq_avg_miss_latency::.switch_cpus.inst 86809.523810                       # average ReadCleanReq miss latency
system.l2.ReadCleanReq_avg_miss_latency::total 82863.636364                       # average ReadCleanReq miss latency
system.l2.ReadCleanReq_mshr_misses::.switch_cpus.inst           42                       # number of ReadCleanReq MSHR misses
system.l2.ReadCleanReq_mshr_misses::total           42                       # number of ReadCleanReq MSHR misses
system.l2.ReadCleanReq_mshr_miss_latency::.switch_cpus.inst      3226000                       # number of ReadCleanReq MSHR miss cycles
system.l2.ReadCleanReq_mshr_miss_latency::total      3226000                       # number of ReadCleanReq MSHR miss cycles
system.l2.ReadCleanReq_mshr_miss_rate::.switch_cpus.inst            1                       # mshr miss rate for ReadCleanReq accesses
system.l2.ReadCleanReq_mshr_miss_rate::total     0.954545                       # mshr miss rate for ReadCleanReq accesses
system.l2.ReadCleanReq_avg_mshr_miss_latency::.switch_cpus.inst 76809.523810                       # average ReadCleanReq mshr miss latency
system.l2.ReadCleanReq_avg_mshr_miss_latency::total 76809.523810                       # average ReadCleanReq mshr miss latency
system.l2.ReadSharedReq_hits::.switch_cpus.data         9417                       # number of ReadSharedReq hits
system.l2.ReadSharedReq_hits::total              9417                       # number of ReadSharedReq hits
system.l2.ReadSharedReq_misses::.cpu.data            4                       # number of ReadSharedReq misses
system.l2.ReadSharedReq_misses::.switch_cpus.data        93428                       # number of ReadSharedReq misses
[...]
system.cpu.icache.tags.data_accesses          6582886                       # Number of data accesses
system.cpu.dtb.walker.pwrStateResidencyTicks::UNDEFINED 805436387460000                       # Cumulative time (in ticks) in various power states
system.cpu.interrupts.clk_domain.clock           8000                       # Clock period in ticks
system.cpu.itb_walker_cache.pwrStateResidencyTicks::UNDEFINED 805436387460000                       # Cumulative time (in ticks) in various power states
system.cpu.itb_walker_cache.blocked_cycles::no_mshrs            0                       # number of cycles access was blocked
system.cpu.itb_walker_cache.blocked_cycles::no_targets            0                       # number of cycles access was blocked
system.cpu.itb_walker_cache.blocked::no_mshrs            0                       # number of cycles access was blocked
system.cpu.itb_walker_cache.blocked::no_targets            0                       # number of cycles access was blocked
system.cpu.itb_walker_cache.avg_blocked_cycles::no_mshrs          nan                       # average number of cycles each access was blocked
system.cpu.itb_walker_cache.avg_blocked_cycles::no_targets          nan                       # average number of cycles each access was blocked
system.cpu.itb_walker_cache.replacements            0                       # number of replacements
system.cpu.itb_walker_cache.tags.pwrStateResidencyTicks::UNDEFINED 805436387460000                       # Cumulative time (in ticks) in various power states
system.cpu.itb_walker_cache.tags.tagsinuse            0                       # Cycle average of tags in use
system.cpu.itb_walker_cache.tags.total_refs            0                       # Total number of references to valid blocks.
system.cpu.itb_walker_cache.tags.sampled_refs            0                       # Sample count of references to valid blocks.
system.cpu.itb_walker_cache.tags.avg_refs          nan                       # Average number of references to valid blocks.
system.cpu.itb_walker_cache.tags.warmup_cycle            0                       # Cycle when the warmup percentage was hit.
system.cpu.itb_walker_cache.tags.tag_accesses            0                       # Number of tag accesses
system.cpu.itb_walker_cache.tags.data_accesses            0                       # Number of data accesses
system.cpu.itb.walker.pwrStateResidencyTicks::UNDEFINED 805436387460000                       # Cumulative time (in ticks) in various power states
system.cpu.dtb_walker_cache.pwrStateResidencyTicks::UNDEFINED 805436387460000                       # Cumulative time (in ticks) in various power states
system.cpu.dtb_walker_cache.blocked_cycles::no_mshrs            0                       # number of cycles access was blocked
system.cpu.dtb_walker_cache.blocked_cycles::no_targets            0                       # number of cycles access was blocked
system.cpu.dtb_walker_cache.blocked::no_mshrs            0                       # number of cycles access was blocked
system.cpu.dtb_walker_cache.blocked::no_targets            0                       # number of cycles access was blocked
system.cpu.dtb_walker_cache.avg_blocked_cycles::no_mshrs          nan                       # average number of cycles each access was blocked
system.cpu.dtb_walker_cache.avg_blocked_cycles::no_targets          nan                       # average number of cycles each access was blocked
system.cpu.dtb_walker_cache.replacements            0                       # number of replacements
system.cpu.dtb_walker_cache.tags.pwrStateResidencyTicks::UNDEFINED 805436387460000                       # Cumulative time (in ticks) in various power states
system.cpu.dtb_walker_cache.tags.tagsinuse            0                       # Cycle average of tags in use
system.cpu.dtb_walker_cache.tags.total_refs            0                       # Total number of references to valid blocks.
system.cpu.dtb_walker_cache.tags.sampled_refs            0                       # Sample count of references to valid blocks.
system.cpu.dtb_walker_cache.tags.avg_refs          nan                       # Average number of references to valid blocks.
system.cpu.dtb_walker_cache.tags.warmup_cycle            0                       # Cycle when the warmup percentage was hit.
system.cpu.dtb_walker_cache.tags.tag_accesses            0                       # Number of tag accesses
system.cpu.dtb_walker_cache.tags.data_accesses            0                       # Number of data accesses
system.cpu.dcache.pwrStateResidencyTicks::UNDEFINED 805436387460000                       # Cumulative time (in ticks) in various power states
system.cpu.dcache.demand_hits::.cpu.data            1                       # number of demand (read+write) hits
system.cpu.dcache.demand_hits::.switch_cpus.data     15699194                       # number of demand (read+write) hits
system.cpu.dcache.demand_hits::total         15699195                       # number of demand (read+write) hits
system.cpu.dcache.overall_hits::.cpu.data            1                       # number of overall hits
system.cpu.dcache.overall_hits::.switch_cpus.data     15699194                       # number of overall hits
system.cpu.dcache.overall_hits::total        15699195                       # number of overall hits
system.cpu.dcache.demand_misses::.cpu.data            4                       # number of demand (read+write) misses
system.cpu.dcache.demand_misses::.switch_cpus.data      2935975                       # number of demand (read+write) misses
system.cpu.dcache.demand_misses::total        2935979                       # number of demand (read+write) misses
system.cpu.dcache.overall_misses::.cpu.data            4                       # number of overall misses
system.cpu.dcache.overall_misses::.switch_cpus.data      2935975                       # number of overall misses
system.cpu.dcache.overall_misses::total       2935979                       # number of overall misses
system.cpu.dcache.demand_miss_latency::.switch_cpus.data 164002926000                       # number of demand (read+write) miss cycles
system.cpu.dcache.demand_miss_latency::total 164002926000                       # number of demand (read+write) miss cycles
system.cpu.dcache.overall_miss_latency::.switch_cpus.data 164002926000                       # number of overall miss cycles
system.cpu.dcache.overall_miss_latency::total 164002926000                       # number of overall miss cycles
system.cpu.dcache.demand_accesses::.cpu.data            5                       # number of demand (read+write) accesses
system.cpu.dcache.demand_accesses::.switch_cpus.data     18635169                       # number of demand (read+write) accesses
system.cpu.dcache.demand_accesses::total     18635174                       # number of demand (read+write) accesses
system.cpu.dcache.overall_accesses::.cpu.data            5                       # number of overall (read+write) accesses
system.cpu.dcache.overall_accesses::.switch_cpus.data     18635169                       # number of overall (read+write) accesses
system.cpu.dcache.overall_accesses::total     18635174                       # number of overall (read+write) accesses
system.cpu.dcache.demand_miss_rate::.cpu.data     0.800000                       # miss rate for demand accesses
system.cpu.dcache.demand_miss_rate::.switch_cpus.data     0.157550                       # miss rate for demand accesses
system.cpu.dcache.demand_miss_rate::total     0.157550                       # miss rate for demand accesses
system.cpu.dcache.overall_miss_rate::.cpu.data     0.800000                       # miss rate for overall accesses
system.cpu.dcache.overall_miss_rate::.switch_cpus.data     0.157550                       # miss rate for overall accesses
system.cpu.dcache.overall_miss_rate::total     0.157550                       # miss rate for overall accesses
system.cpu.dcache.demand_avg_miss_latency::.switch_cpus.data 55859.782866                       # average overall miss latency
system.cpu.dcache.demand_avg_miss_latency::total 55859.706762                       # average overall miss latency
system.cpu.dcache.overall_avg_miss_latency::.switch_cpus.data 55859.782866                       # average overall miss latency
system.cpu.dcache.overall_avg_miss_latency::total 55859.706762                       # average overall miss latency
system.cpu.dcache.blocked_cycles::no_mshrs         2263                       # number of cycles access was blocked
system.cpu.dcache.blocked_cycles::no_targets            0                       # number of cycles access was blocked
system.cpu.dcache.blocked::no_mshrs                95                       # number of cycles access was blocked
system.cpu.dcache.blocked::no_targets               0                       # number of cycles access was blocked
system.cpu.dcache.avg_blocked_cycles::no_mshrs    23.821053                       # average number of cycles each access was blocked
system.cpu.dcache.avg_blocked_cycles::no_targets          nan                       # average number of cycles each access was blocked
system.cpu.dcache.writebacks::.writebacks          244                       # number of writebacks
system.cpu.dcache.writebacks::total               244                       # number of writebacks
system.cpu.dcache.demand_mshr_hits::.switch_cpus.data      2525437                       # number of demand (read+write) MSHR hits
system.cpu.dcache.demand_mshr_hits::total      2525437                       # number of demand (read+write) MSHR hits
system.cpu.dcache.overall_mshr_hits::.switch_cpus.data      2525437                       # number of overall MSHR hits
system.cpu.dcache.overall_mshr_hits::total      2525437                       # number of overall MSHR hits
system.cpu.dcache.demand_mshr_misses::.switch_cpus.data       410538                       # number of demand (read+write) MSHR misses
system.cpu.dcache.demand_mshr_misses::total       410538                       # number of demand (read+write) MSHR misses
system.cpu.dcache.overall_mshr_misses::.switch_cpus.data       410538                       # number of overall MSHR misses
system.cpu.dcache.overall_mshr_misses::total       410538                       # number of overall MSHR misses
system.cpu.dcache.demand_mshr_miss_latency::.switch_cpus.data  26412014000                       # number of demand (read+write) MSHR miss cycles
system.cpu.dcache.demand_mshr_miss_latency::total  26412014000                       # number of demand (read+write) MSHR miss cycles
system.cpu.dcache.overall_mshr_miss_latency::.switch_cpus.data  26412014000                       # number of overall MSHR miss cycles
system.cpu.dcache.overall_mshr_miss_latency::total  26412014000                       # number of overall MSHR miss cycles
system.cpu.dcache.demand_mshr_miss_rate::.switch_cpus.data     0.022030                       # mshr miss rate for demand accesses
system.cpu.dcache.demand_mshr_miss_rate::total     0.022030                       # mshr miss rate for demand accesses
system.cpu.dcache.overall_mshr_miss_rate::.switch_cpus.data     0.022030                       # mshr miss rate for overall accesses
system.cpu.dcache.overall_mshr_miss_rate::total     0.022030                       # mshr miss rate for overall accesses
system.cpu.dcache.demand_avg_mshr_miss_latency::.switch_cpus.data 64335.126103                       # average overall mshr miss latency
system.cpu.dcache.demand_avg_mshr_miss_latency::total 64335.126103                       # average overall mshr miss latency
system.cpu.dcache.overall_avg_mshr_miss_latency::.switch_cpus.data 64335.126103                       # average overall mshr miss latency
system.cpu.dcache.overall_avg_mshr_miss_latency::total 64335.126103                       # average overall mshr miss latency
system.cpu.dcache.replacements                 409517                       # number of replacements
system.cpu.dcache.ReadReq_hits::.cpu.data            1                       # number of ReadReq hits
system.cpu.dcache.ReadReq_hits::.switch_cpus.data     15150288                       # number of ReadReq hits
system.cpu.dcache.ReadReq_hits::total        15150289                       # number of ReadReq hits
system.cpu.dcache.ReadReq_misses::.cpu.data            4                       # number of ReadReq misses
system.cpu.dcache.ReadReq_misses::.switch_cpus.data      2935939                       # number of ReadReq misses
system.cpu.dcache.ReadReq_misses::total       2935943                       # number of ReadReq misses
system.cpu.dcache.ReadReq_miss_latency::.switch_cpus.data 164001374000                       # number of ReadReq miss cycles
system.cpu.dcache.ReadReq_miss_latency::total 164001374000                       # number of ReadReq miss cycles
system.cpu.dcache.ReadReq_accesses::.cpu.data            5                       # number of ReadReq accesses(hits+misses)
system.cpu.dcache.ReadReq_accesses::.switch_cpus.data     18086227                       # number of ReadReq accesses(hits+misses)
system.cpu.dcache.ReadReq_accesses::total     18086232                       # number of ReadReq accesses(hits+misses)
system.cpu.dcache.ReadReq_miss_rate::.cpu.data     0.800000                       # miss rate for ReadReq accesses
system.cpu.dcache.ReadReq_miss_rate::.switch_cpus.data     0.162330                       # miss rate for ReadReq accesses
system.cpu.dcache.ReadReq_miss_rate::total     0.162330                       # miss rate for ReadReq accesses
system.cpu.dcache.ReadReq_avg_miss_latency::.switch_cpus.data 55859.939188                       # average ReadReq miss latency
system.cpu.dcache.ReadReq_avg_miss_latency::total 55859.863083                       # average ReadReq miss latency
system.cpu.dcache.ReadReq_mshr_hits::.switch_cpus.data      2525430                       # number of ReadReq MSHR hits
system.cpu.dcache.ReadReq_mshr_hits::total      2525430                       # number of ReadReq MSHR hits
system.cpu.dcache.ReadReq_mshr_misses::.switch_cpus.data       410509                       # number of ReadReq MSHR misses
system.cpu.dcache.ReadReq_mshr_misses::total       410509                       # number of ReadReq MSHR misses
system.cpu.dcache.ReadReq_mshr_miss_latency::.switch_cpus.data  26410785000                       # number of ReadReq MSHR miss cycles
system.cpu.dcache.ReadReq_mshr_miss_latency::total  26410785000                       # number of ReadReq MSHR miss cycles
system.cpu.dcache.ReadReq_mshr_miss_rate::.switch_cpus.data     0.022697                       # mshr miss rate for ReadReq accesses
system.cpu.dcache.ReadReq_mshr_miss_rate::total     0.022697                       # mshr miss rate for ReadReq accesses
system.cpu.dcache.ReadReq_avg_mshr_miss_latency::.switch_cpus.data 64336.677150                       # average ReadReq mshr miss latency
system.cpu.dcache.ReadReq_avg_mshr_miss_latency::total 64336.677150                       # average ReadReq mshr miss latency
system.cpu.dcache.WriteReq_hits::.switch_cpus.data       548906                       # number of WriteReq hits
system.cpu.dcache.WriteReq_hits::total         548906                       # number of WriteReq hits
system.cpu.dcache.WriteReq_misses::.switch_cpus.data           36                       # number of WriteReq misses
system.cpu.dcache.WriteReq_misses::total           36                       # number of WriteReq misses
system.cpu.dcache.WriteReq_miss_latency::.switch_cpus.data      1552000                       # number of WriteReq miss cycles
system.cpu.dcache.WriteReq_miss_latency::total      1552000                       # number of WriteReq miss cycles
system.cpu.dcache.WriteReq_accesses::.switch_cpus.data       548942                       # number of WriteReq accesses(hits+misses)
system.cpu.dcache.WriteReq_accesses::total       548942                       # number of WriteReq accesses(hits+misses)
system.cpu.dcache.WriteReq_miss_rate::.switch_cpus.data     0.000066                       # miss rate for WriteReq accesses
system.cpu.dcache.WriteReq_miss_rate::total     0.000066                       # miss rate for WriteReq accesses
system.cpu.dcache.WriteReq_avg_miss_latency::.switch_cpus.data 43111.111111                       # average WriteReq miss latency
system.cpu.dcache.WriteReq_avg_miss_latency::total 43111.111111                       # average WriteReq miss latency
system.cpu.dcache.WriteReq_mshr_hits::.switch_cpus.data            7                       # number of WriteReq MSHR hits
system.cpu.dcache.WriteReq_mshr_hits::total            7                       # number of WriteReq MSHR hits
system.cpu.dcache.WriteReq_mshr_misses::.switch_cpus.data           29                       # number of WriteReq MSHR misses
system.cpu.dcache.WriteReq_mshr_misses::total           29                       # number of WriteReq MSHR misses
system.cpu.dcache.WriteReq_mshr_miss_latency::.switch_cpus.data      1229000                       # number of WriteReq MSHR miss cycles
system.cpu.dcache.WriteReq_mshr_miss_latency::total      1229000                       # number of WriteReq MSHR miss cycles
system.cpu.dcache.WriteReq_mshr_miss_rate::.switch_cpus.data     0.000053                       # mshr miss rate for WriteReq accesses
system.cpu.dcache.WriteReq_mshr_miss_rate::total     0.000053                       # mshr miss rate for WriteReq accesses
system.cpu.dcache.WriteReq_avg_mshr_miss_latency::.switch_cpus.data 42379.310345                       # average WriteReq mshr miss latency
system.cpu.dcache.WriteReq_avg_mshr_miss_latency::total 42379.310345                       # average WriteReq mshr miss latency
system.cpu.dcache.tags.pwrStateResidencyTicks::UNDEFINED 805436387460000                       # Cumulative time (in ticks) in various power states
system.cpu.dcache.tags.tagsinuse             0.033141                       # Cycle average of tags in use
system.cpu.dcache.tags.total_refs            16109736                       # Total number of references to valid blocks.
system.cpu.dcache.tags.sampled_refs            410541                       # Sample count of references to valid blocks.
system.cpu.dcache.tags.avg_refs             39.240261                       # Average number of references to valid blocks.
system.cpu.dcache.tags.warmup_cycle      805410268671000                       # Cycle when the warmup percentage was hit.
system.cpu.dcache.tags.occ_blocks::.cpu.data     0.000000                       # Average occupied blocks per requestor
system.cpu.dcache.tags.occ_blocks::.switch_cpus.data     0.033141                       # Average occupied blocks per requestor
system.cpu.dcache.tags.occ_percent::.cpu.data     0.000000                       # Average percentage of cache occupancy
system.cpu.dcache.tags.occ_percent::.switch_cpus.data     0.000032                       # Average percentage of cache occupancy
system.cpu.dcache.tags.occ_percent::total     0.000032                       # Average percentage of cache occupancy
system.cpu.dcache.tags.occ_task_id_blocks::1024         1024                       # Occupied blocks per task id
system.cpu.dcache.tags.age_task_id_blocks_1024::0          142                       # Occupied blocks per task id
system.cpu.dcache.tags.age_task_id_blocks_1024::1          881                       # Occupied blocks per task id
system.cpu.dcache.tags.age_task_id_blocks_1024::4            1                       # Occupied blocks per task id
system.cpu.dcache.tags.occ_task_id_percent::1024            1                       # Percentage of cache occupancy per task id
system.cpu.dcache.tags.tag_accesses          37680889                       # Number of tag accesses
system.cpu.dcache.tags.data_accesses         37680889                       # Number of data accesses

---------- End Simulation Statistics   ----------
