
---------- Begin Simulation Statistics ----------
final_tick                               359103532107500                       # Number of ticks from beginning of simulation (restored from checkpoints and never reset)
host_inst_rate                                  33555                       # Simulator instruction rate (inst/s)
host_mem_usage                                 807540                       # Number of bytes of host memory used
host_op_rate                                    56628                       # Simulator op (including micro ops) rate (op/s)
host_seconds                                   298.02                       # Real time elapsed on the host
host_tick_rate                               30280486                       # Simulator tick rate (ticks/s)
sim_freq                                 1000000000000                       # Frequency of simulated ticks
sim_insts                                    10000009                       # Number of instructions simulated
sim_ops                                      16876344                       # Number of ops (including micro ops) simulated
sim_seconds                                  0.009024                       # Number of seconds simulated
sim_ticks                                  9024267500                       # Number of ticks simulated
system.cpu.Branches                                 1                       # Number of branches fetched
system.cpu.committedInsts                           8                       # Number of instructions committed
system.cpu.committedOps                            16                       # Number of ops (including micro ops) committed
system.cpu.dtb.rdAccesses                           4                       # TLB accesses on read requests
system.cpu.dtb.rdMisses                             0                       # TLB misses on read requests
system.cpu.dtb.wrAccesses                           0                       # TLB accesses on write requests
system.cpu.dtb.wrMisses                             0                       # TLB misses on write requests
system.cpu.idle_fraction                            0                       # Percentage of idle cycles
system.cpu.itb.rdAccesses                           0                       # TLB accesses on read requests
system.cpu.itb.rdMisses                             0                       # TLB misses on read requests
system.cpu.itb.wrAccesses                          12                       # TLB accesses on write requests
system.cpu.itb.wrMisses                             0                       # TLB misses on write requests
system.cpu.not_idle_fraction                        1                       # Percentage of non-idle cycles
system.cpu.numCycles                               20                       # number of cpu cycles simulated
system.cpu.numWorkItemsCompleted                    0                       # number of work items this cpu completed
system.cpu.numWorkItemsStarted                      0                       # number of work items this cpu started
system.cpu.num_busy_cycles                         20                       # Number of busy cycles
system.cpu.num_cc_register_reads                    5                       # number of times the CC registers were read
system.cpu.num_conditional_control_insts            1                       # number of instructions that are conditional controls
system.cpu.num_fp_alu_accesses                     13                       # Number of float alu accesses
system.cpu.num_fp_insts                            13                       # number of float instructions
system.cpu.num_fp_register_reads                   20                       # number of times the floating registers were read
system.cpu.num_fp_register_writes                  13                       # number of times the floating registers were written
system.cpu.num_func_calls                           0                       # number of times a function call or return occured
system.cpu.num_idle_cycles                          0                       # Number of idle cycles
system.cpu.num_int_alu_accesses                     6                       # Number of integer alu accesses
system.cpu.num_int_insts                            6                       # number of integer instructions
system.cpu.num_int_register_reads                  13                       # number of times the integer registers were read
system.cpu.num_int_register_writes                  2                       # number of times the integer registers were written
system.cpu.num_load_insts                           3                       # Number of load instructions
system.cpu.num_mem_refs                             3                       # number of memory refs
system.cpu.num_store_insts                          0                       # Number of store instructions
system.cpu.num_vec_alu_accesses                     0                       # Number of vector alu accesses
system.cpu.num_vec_insts                            0                       # number of vector instructions
system.cpu.num_vec_register_reads                   0                       # number of times the vector registers were read
system.cpu.num_vec_register_writes                  0                       # number of times the vector registers were written
system.cpu.op_class::No_OpClass                     0      0.00%      0.00% # Class of executed instruction
system.cpu.op_class::IntAlu                         5     31.25%     31.25% # Class of executed instruction
system.cpu.op_class::IntMult                        0      0.00%     31.25% # Class of executed instruction
system.cpu.op_class::IntDiv                         0      0.00%     31.25% # Class of executed instruction
system.cpu.op_class::FloatAdd                       2     12.50%     43.75% # Class of executed instruction
system.cpu.op_class::FloatCmp                       0      0.00%     43.75% # Class of executed instruction
system.cpu.op_class::FloatCvt                       0      0.00%     43.75% # Class of executed instruction
system.cpu.op_class::FloatMult                      0      0.00%     43.75% # Class of executed instruction
system.cpu.op_class::FloatMultAcc                   0      0.00%     43.75% # Class of executed instruction
system.cpu.op_class::FloatDiv                       0      0.00%     43.75% # Class of executed instruction
system.cpu.op_class::FloatMisc                      0      0.00%     43.75% # Class of executed instruction
system.cpu.op_class::FloatSqrt                      0      0.00%     43.75% # Class of executed instruction
system.cpu.op_class::SimdAdd                        0      0.00%     43.75% # Class of executed instruction
system.cpu.op_class::SimdAddAcc                     0      0.00%     43.75% # Class of executed instruction
system.cpu.op_class::SimdAlu                        2     12.50%     56.25% # Class of executed instruction
system.cpu.op_class::SimdCmp                        0      0.00%     56.25% # Class of executed instruction
system.cpu.op_class::SimdCvt                        0      0.00%     56.25% # Class of executed instruction
system.cpu.op_class::SimdMisc                       0      0.00%     56.25% # Class of executed instruction
system.cpu.op_class::SimdMult                       0      0.00%     56.25% # Class of executed instruction
system.cpu.op_class::SimdMultAcc                    0      0.00%     56.25% # Class of executed instruction
system.cpu.op_class::SimdShift                      0      0.00%     56.25% # Class of executed instruction
system.cpu.op_class::SimdShiftAcc                   0      0.00%     56.25% # Class of executed instruction
system.cpu.op_class::SimdDiv                        0      0.00%     56.25% # Class of executed instruction
system.cpu.op_class::SimdSqrt                       0      0.00%     56.25% # Class of executed instruction
system.cpu.op_class::SimdFloatAdd                   3     18.75%     75.00% # Class of executed instruction
system.cpu.op_class::SimdFloatAlu                   0      0.00%     75.00% # Class of executed instruction
system.cpu.op_class::SimdFloatCmp                   0      0.00%     75.00% # Class of executed instruction
system.cpu.op_class::SimdFloatCvt                   0      0.00%     75.00% # Class of executed instruction
system.cpu.op_class::SimdFloatDiv                   0      0.00%     75.00% # Class of executed instruction
system.cpu.op_class::SimdFloatMisc                  0      0.00%     75.00% # Class of executed instruction
system.cpu.op_class::SimdFloatMult                  1      6.25%     81.25% # Class of executed instruction
system.cpu.op_class::SimdFloatMultAcc               0      0.00%     81.25% # Class of executed instruction
system.cpu.op_class::SimdFloatSqrt                  0      0.00%     81.25% # Class of executed instruction
system.cpu.op_class::SimdReduceAdd                  0      0.00%     81.25% # Class of executed instruction
system.cpu.op_class::SimdReduceAlu                  0      0.00%     81.25% # Class of executed instruction
system.cpu.op_class::SimdReduceCmp                  0      0.00%     81.25% # Class of executed instruction
system.cpu.op_class::SimdFloatReduceAdd             0      0.00%     81.25% # Class of executed instruction
system.cpu.op_class::SimdFloatReduceCmp             0      0.00%     81.25% # Class of executed instruction
system.cpu.op_class::SimdAes                        0      0.00%     81.25% # Class of executed instruction
system.cpu.op_class::SimdAesMix                     0      0.00%     81.25% # Class of executed instruction
system.cpu.op_class::SimdSha1Hash                   0      0.00%     81.25% # Class of executed instruction
system.cpu.op_class::SimdSha1Hash2                  0      0.00%     81.25% # Class of executed instruction
system.cpu.op_class::SimdSha256Hash                 0      0.00%     81.25% # Class of executed instruction
system.cpu.op_class::SimdSha256Hash2                0      0.00%     81.25% # Class of executed instruction
system.cpu.op_class::SimdShaSigma2                  0      0.00%     81.25% # Class of executed instruction
system.cpu.op_class::SimdShaSigma3                  0      0.00%     81.25% # Class of executed instruction
system.cpu.op_class::SimdPredAlu                    0      0.00%     81.25% # Class of executed instruction
system.cpu.op_class::MemRead                        0      0.00%     81.25% # Class of executed instruction
system.cpu.op_class::MemWrite                       0      0.00%     81.25% # Class of executed instruction
system.cpu.op_class::FloatMemRead                   3     18.75%    100.00% # Class of executed instruction
system.cpu.op_class::FloatMemWrite                  0      0.00%    100.00% # Class of executed instruction
system.cpu.op_class::IprAccess                      0      0.00%    100.00% # Class of executed instruction
system.cpu.op_class::InstPrefetch                   0      0.00%    100.00% # Class of executed instruction
system.cpu.op_class::total                         16                       # Class of executed instruction
system.cpu.workload.numSyscalls                     0                       # Number of system calls
system.membus.snoop_filter.hit_multi_requests            0                       # Number of requests hitting in the snoop filter with multiple (>1) holders of the requested data.
system.membus.snoop_filter.hit_multi_snoops            0                       # Number of snoops hitting in the snoop filter with multiple (>1) holders of the requested data.
system.membus.snoop_filter.hit_single_requests       153883                       # Number of requests hitting in the snoop filter with a single holder of the requested data.
system.membus.snoop_filter.hit_single_snoops            0                       # Number of snoops hitting in the snoop filter with a single holder of the requested data.
system.membus.snoop_filter.tot_requests        316616                       # Total number of requests made to the snoop filter.
system.membus.snoop_filter.tot_snoops               0                       # Total number of snoops made to the snoop filter.
system.switch_cpus.branchPred.BTBCorrect            0                       # Number of correct BTB predictions (this stat may not work properly.
system.switch_cpus.branchPred.BTBHitPct      0.000000                       # BTB Hit Percentage
system.switch_cpus.branchPred.BTBHits               0                       # Number of BTB hits
system.switch_cpus.branchPred.BTBLookups      1367921                       # Number of BTB lookups
system.switch_cpus.branchPred.RASInCorrect           29                       # Number of incorrect RAS predictions.
system.switch_cpus.branchPred.condIncorrect        76972                       # Number of conditional branches incorrect
system.switch_cpus.branchPred.condPredicted      1394971                       # Number of conditional branches predicted
system.switch_cpus.branchPred.indirectHits      1022315                       # Number of indirect target hits.
system.switch_cpus.branchPred.indirectLookups      1367921                       # Number of indirect predictor lookups.
system.switch_cpus.branchPred.indirectMisses       345606                       # Number of indirect misses.
system.switch_cpus.branchPred.lookups         1494926                       # Number of BP lookups
system.switch_cpus.branchPred.usedRAS           49244                       # Number of times the RAS was used to get a target.
system.switch_cpus.branchPredindirectMispredicted        19601                       # Number of mispredicted indirect branches.
system.switch_cpus.cc_regfile_reads           6483297                       # number of cc regfile reads
system.switch_cpus.cc_regfile_writes          4451433                       # number of cc regfile writes
system.switch_cpus.commit.amos                      0                       # Number of atomic instructions committed
system.switch_cpus.commit.branchMispredicts        77036                       # The number of times a branch was mispredicted
system.switch_cpus.commit.branches            1049066                       # Number of branches committed
system.switch_cpus.commit.bw_lim_events       1450464                       # number cycles where commit BW limit reached
system.switch_cpus.commit.commitSquashedInsts      3024168                       # The number of squashed insts skipped by commit
system.switch_cpus.commit.committedInsts     10000001                       # Number of instructions committed
system.switch_cpus.commit.committedOps       16876328                       # Number of ops (including micro ops) committed
system.switch_cpus.commit.committed_per_cycle::samples     17565387                       # Number of insts commited each cycle
system.switch_cpus.commit.committed_per_cycle::mean     0.960772                       # Number of insts commited each cycle
system.switch_cpus.commit.committed_per_cycle::stdev     2.349999                       # Number of insts commited each cycle
system.switch_cpus.commit.committed_per_cycle::underflows            0      0.00%      0.00% # Number of insts commited each cycle
system.switch_cpus.commit.committed_per_cycle::0     14147029     80.54%     80.54% # Number of insts commited each cycle
system.switch_cpus.commit.committed_per_cycle::1       878579      5.00%     85.54% # Number of insts commited each cycle
system.switch_cpus.commit.committed_per_cycle::2       137585      0.78%     86.32% # Number of insts commited each cycle
system.switch_cpus.commit.committed_per_cycle::3       219784      1.25%     87.58% # Number of insts commited each cycle
system.switch_cpus.commit.committed_per_cycle::4       388324      2.21%     89.79% # Number of insts commited each cycle
system.switch_cpus.commit.committed_per_cycle::5       210232      1.20%     90.98% # Number of insts commited each cycle
system.switch_cpus.commit.committed_per_cycle::6        78671      0.45%     91.43% # Number of insts commited each cycle
system.switch_cpus.commit.committed_per_cycle::7        54719      0.31%     91.74% # Number of insts commited each cycle
system.switch_cpus.commit.committed_per_cycle::8      1450464      8.26%    100.00% # Number of insts commited each cycle
system.switch_cpus.commit.committed_per_cycle::overflows            0      0.00%    100.00% # Number of insts commited each cycle
system.switch_cpus.commit.committed_per_cycle::min_value            0                       # Number of insts commited each cycle
system.switch_cpus.commit.committed_per_cycle::max_value            8                       # Number of insts commited each cycle
system.switch_cpus.commit.committed_per_cycle::total     17565387                       # Number of insts commited each cycle
system.switch_cpus.commit.fp_insts            8713194                       # Number of committed floating point instructions.
system.switch_cpus.commit.function_calls        26226                       # Number of function calls committed.
system.switch_cpus.commit.int_insts          10019631                       # Number of committed integer instructions.
system.switch_cpus.commit.loads               2743170                       # Number of loads committed
system.switch_cpus.commit.membars                   0                       # Number of memory barriers committed
system.switch_cpus.commit.op_class_0::No_OpClass        27517      0.16%      0.16% # Class of committed instruction
system.switch_cpus.commit.op_class_0::IntAlu      7410720     43.91%     44.07% # Class of committed instruction
system.switch_cpus.commit.op_class_0::IntMult          119      0.00%     44.08% # Class of committed instruction
system.switch_cpus.commit.op_class_0::IntDiv           56      0.00%     44.08% # Class of committed instruction
system.switch_cpus.commit.op_class_0::FloatAdd       891416      5.28%     49.36% # Class of committed instruction
system.switch_cpus.commit.op_class_0::FloatCmp            0      0.00%     49.36% # Class of committed instruction
system.switch_cpus.commit.op_class_0::FloatCvt            0      0.00%     49.36% # Class of committed instruction
system.switch_cpus.commit.op_class_0::FloatMult            0      0.00%     49.36% # Class of committed instruction
system.switch_cpus.commit.op_class_0::FloatMultAcc            0      0.00%     49.36% # Class of committed instruction
system.switch_cpus.commit.op_class_0::FloatDiv            0      0.00%     49.36% # Class of committed instruction
system.switch_cpus.commit.op_class_0::FloatMisc            0      0.00%     49.36% # Class of committed instruction
system.switch_cpus.commit.op_class_0::FloatSqrt            0      0.00%     49.36% # Class of committed instruction
system.switch_cpus.commit.op_class_0::SimdAdd            0      0.00%     49.36% # Class of committed instruction
system.switch_cpus.commit.op_class_0::SimdAddAcc            0      0.00%     49.36% # Class of committed instruction
system.switch_cpus.commit.op_class_0::SimdAlu      1379320      8.17%     57.53% # Class of committed instruction
system.switch_cpus.commit.op_class_0::SimdCmp            0      0.00%     57.53% # Class of committed instruction
system.switch_cpus.commit.op_class_0::SimdCvt            4      0.00%     57.53% # Class of committed instruction
system.switch_cpus.commit.op_class_0::SimdMisc        34436      0.20%     57.74% # Class of committed instruction
system.switch_cpus.commit.op_class_0::SimdMult            0      0.00%     57.74% # Class of committed instruction
system.switch_cpus.commit.op_class_0::SimdMultAcc            0      0.00%     57.74% # Class of committed instruction
system.switch_cpus.commit.op_class_0::SimdShift            0      0.00%     57.74% # Class of committed instruction
system.switch_cpus.commit.op_class_0::SimdShiftAcc            0      0.00%     57.74% # Class of committed instruction
system.switch_cpus.commit.op_class_0::SimdDiv            0      0.00%     57.74% # Class of committed instruction
system.switch_cpus.commit.op_class_0::SimdSqrt            0      0.00%     57.74% # Class of committed instruction
system.switch_cpus.commit.op_class_0::SimdFloatAdd      1310530      7.77%     65.50% # Class of committed instruction
system.switch_cpus.commit.op_class_0::SimdFloatAlu            0      0.00%     65.50% # Class of committed instruction
system.switch_cpus.commit.op_class_0::SimdFloatCmp        15450      0.09%     65.59% # Class of committed instruction
system.switch_cpus.commit.op_class_0::SimdFloatCvt      1398264      8.29%     73.88% # Class of committed instruction
system.switch_cpus.commit.op_class_0::SimdFloatDiv            0      0.00%     73.88% # Class of committed instruction
system.switch_cpus.commit.op_class_0::SimdFloatMisc            0      0.00%     73.88% # Class of committed instruction
system.switch_cpus.commit.op_class_0::SimdFloatMult      1344926      7.97%     81.85% # Class of committed instruction
system.switch_cpus.commit.op_class_0::SimdFloatMultAcc            0      0.00%     81.85% # Class of committed instruction
system.switch_cpus.commit.op_class_0::SimdFloatSqrt            0      0.00%     81.85% # Class of committed instruction
system.switch_cpus.commit.op_class_0::SimdReduceAdd            0      0.00%     81.85% # Class of committed instruction
system.switch_cpus.commit.op_class_0::SimdReduceAlu            0      0.00%     81.85% # Class of committed instruction
system.switch_cpus.commit.op_class_0::SimdReduceCmp            0      0.00%     81.85% # Class of committed instruction
system.switch_cpus.commit.op_class_0::SimdFloatReduceAdd            0      0.00%     81.85% # Class of committed instruction
system.switch_cpus.commit.op_class_0::SimdFloatReduceCmp            0      0.00%     81.85% # Class of committed instruction
system.switch_cpus.commit.op_class_0::SimdAes            0      0.00%     81.85% # Class of committed instruction
system.switch_cpus.commit.op_class_0::SimdAesMix            0      0.00%     81.85% # Class of committed instruction
system.switch_cpus.commit.op_class_0::SimdSha1Hash            0      0.00%     81.85% # Class of committed instruction
system.switch_cpus.commit.op_class_0::SimdSha1Hash2            0      0.00%     81.85% # Class of committed instruction
system.switch_cpus.commit.op_class_0::SimdSha256Hash            0      0.00%     81.85% # Class of committed instruction
system.switch_cpus.commit.op_class_0::SimdSha256Hash2            0      0.00%     81.85% # Class of committed instruction
system.switch_cpus.commit.op_class_0::SimdShaSigma2            0      0.00%     81.85% # Class of committed instruction
system.switch_cpus.commit.op_class_0::SimdShaSigma3            0      0.00%     81.85% # Class of committed instruction
system.switch_cpus.commit.op_class_0::SimdPredAlu            0      0.00%     81.85% # Class of committed instruction
system.switch_cpus.commit.op_class_0::MemRead       937733      5.56%     87.40% # Class of committed instruction
system.switch_cpus.commit.op_class_0::MemWrite       275299      1.63%     89.03% # Class of committed instruction
system.switch_cpus.commit.op_class_0::FloatMemRead      1805437     10.70%     99.73% # Class of committed instruction
system.switch_cpus.commit.op_class_0::FloatMemWrite        45101      0.27%    100.00% # Class of committed instruction
system.switch_cpus.commit.op_class_0::IprAccess            0      0.00%    100.00% # Class of committed instruction
system.switch_cpus.commit.op_class_0::InstPrefetch            0      0.00%    100.00% # Class of committed instruction
system.switch_cpus.commit.op_class_0::total     16876328                       # Class of committed instruction
system.switch_cpus.commit.refs                3063570                       # Number of memory references committed
system.switch_cpus.commit.swp_count                 0                       # Number of s/w prefetches committed
system.switch_cpus.commit.vec_insts                 0                       # Number of committed Vector instructions.
system.switch_cpus.committedInsts            10000001                       # Number of Instructions Simulated
system.switch_cpus.committedOps              16876328                       # Number of Ops (including micro ops) Simulated
system.switch_cpus.cpi                       1.804851                       # CPI: Cycles Per Instruction
system.switch_cpus.cpi_total                 1.804851                       # CPI: Total CPI of All Threads
system.switch_cpus.decode.BlockedCycles      13741070                       # Number of cycles decode is blocked
system.switch_cpus.decode.DecodedInsts       20815763                       # Number of instructions handled by decode
system.switch_cpus.decode.IdleCycles          1191782                       # Number of cycles decode is idle
system.switch_cpus.decode.RunCycles           2167552                       # Number of cycles decode is running
system.switch_cpus.decode.SquashCycles          77298                       # Number of cycles decode is squashing
system.switch_cpus.decode.UnblockCycles        814110                       # Number of cycles decode is unblocking
system.switch_cpus.dtb.rdAccesses             3214664                       # TLB accesses on read requests
system.switch_cpus.dtb.rdMisses                 15560                       # TLB misses on read requests
system.switch_cpus.dtb.wrAccesses              371483                       # TLB accesses on write requests
system.switch_cpus.dtb.wrMisses                  1259                       # TLB misses on write requests
system.switch_cpus.fetch.Branches             1494926                       # Number of branches that fetch encountered
system.switch_cpus.fetch.CacheLines           1742869                       # Number of cache lines fetched
system.switch_cpus.fetch.Cycles              16103905                       # Number of cycles fetch has run and was not squashing or blocked
system.switch_cpus.fetch.IcacheSquashes         17059                       # Number of outstanding Icache misses that were squashed
system.switch_cpus.fetch.IcacheWaitRetryStallCycles           74                       # Number of stall cycles due to full MSHR
system.switch_cpus.fetch.Insts               13046441                       # Number of instructions fetch has processed
system.switch_cpus.fetch.MiscStallCycles           55                       # Number of cycles fetch has spent waiting on interrupts, or bad addresses, or out of MSHRs
system.switch_cpus.fetch.PendingTrapStallCycles         3371                       # Number of stall cycles due to pending traps
system.switch_cpus.fetch.SquashCycles          154596                       # Number of cycles fetch has spent squashing
system.switch_cpus.fetch.branchRate          0.082828                       # Number of branch fetches per cycle
system.switch_cpus.fetch.icacheStallCycles      1807113                       # Number of cycles fetch is stalled on an Icache miss
system.switch_cpus.fetch.predictedBranches      1071559                       # Number of branches that fetch has predicted taken
system.switch_cpus.fetch.rate                0.722854                       # Number of inst fetches per cycle
system.switch_cpus.fetch.rateDist::samples     17991816                       # Number of instructions fetched each cycle (Total)
system.switch_cpus.fetch.rateDist::mean      1.229022                       # Number of instructions fetched each cycle (Total)
system.switch_cpus.fetch.rateDist::stdev     2.627105                       # Number of instructions fetched each cycle (Total)
system.switch_cpus.fetch.rateDist::underflows            0      0.00%      0.00% # Number of instructions fetched each cycle (Total)
system.switch_cpus.fetch.rateDist::0         14241484     79.16%     79.16% # Number of instructions fetched each cycle (Total)
system.switch_cpus.fetch.rateDist::1           275690      1.53%     80.69% # Number of instructions fetched each cycle (Total)
system.switch_cpus.fetch.rateDist::2           212851      1.18%     81.87% # Number of instructions fetched each cycle (Total)
system.switch_cpus.fetch.rateDist::3           227067      1.26%     83.13% # Number of instructions fetched each cycle (Total)
system.switch_cpus.fetch.rateDist::4           321640      1.79%     84.92% # Number of instructions fetched each cycle (Total)
system.switch_cpus.fetch.rateDist::5           388603      2.16%     87.08% # Number of instructions fetched each cycle (Total)
system.switch_cpus.fetch.rateDist::6           493302      2.74%     89.82% # Number of instructions fetched each cycle (Total)
system.switch_cpus.fetch.rateDist::7           109070      0.61%     90.43% # Number of instructions fetched each cycle (Total)
system.switch_cpus.fetch.rateDist::8          1722109      9.57%    100.00% # Number of instructions fetched each cycle (Total)
system.switch_cpus.fetch.rateDist::overflows            0      0.00%    100.00% # Number of instructions fetched each cycle (Total)
system.switch_cpus.fetch.rateDist::min_value            0                       # Number of instructions fetched each cycle (Total)
system.switch_cpus.fetch.rateDist::max_value            8                       # Number of instructions fetched each cycle (Total)
system.switch_cpus.fetch.rateDist::total     17991816                       # Number of instructions fetched each cycle (Total)
system.switch_cpus.fp_regfile_reads          14834948                       # number of floating regfile reads
system.switch_cpus.fp_regfile_writes          8826708                       # number of floating regfile writes
system.switch_cpus.idleCycles                   56699                       # Total number of cycles that the CPU has spent unscheduled due to idling
system.switch_cpus.iew.branchMispredicts        86677                       # Number of branch mispredicts detected at execute
system.switch_cpus.iew.exec_branches          1166325                       # Number of branches executed
system.switch_cpus.iew.exec_nop                     0                       # number of nop insts executed
system.switch_cpus.iew.exec_rate             1.048179                       # Inst execution rate
system.switch_cpus.iew.exec_refs              3663881                       # number of memory reference insts executed
system.switch_cpus.iew.exec_stores             371413                       # Number of stores executed
system.switch_cpus.iew.exec_swp                     0                       # number of swp insts executed
system.switch_cpus.iew.iewBlockCycles         7486264                       # Number of cycles IEW is blocking
system.switch_cpus.iew.iewDispLoadInsts       3303904                       # Number of dispatched load instructions
system.switch_cpus.iew.iewDispNonSpecInsts           26                       # Number of dispatched non-speculative instructions
system.switch_cpus.iew.iewDispSquashedInsts         7164                       # Number of squashed instructions skipped by dispatch
system.switch_cpus.iew.iewDispStoreInsts       429953                       # Number of dispatched store instructions
system.switch_cpus.iew.iewDispatchedInsts     19897599                       # Number of instructions dispatched to IQ
system.switch_cpus.iew.iewExecLoadInsts       3292468                       # Number of load instructions executed
system.switch_cpus.iew.iewExecSquashedInsts       139314                       # Number of squashed instructions skipped in execute
system.switch_cpus.iew.iewExecutedInsts      18918066                       # Number of executed instructions
system.switch_cpus.iew.iewIQFullEvents          78359                       # Number of times the IQ has become full, causing a stall
system.switch_cpus.iew.iewIdleCycles                0                       # Number of cycles IEW is idle
system.switch_cpus.iew.iewLSQFullEvents        593134                       # Number of times the LSQ has become full, causing a stall
system.switch_cpus.iew.iewSquashCycles          77298                       # Number of cycles IEW is squashing
system.switch_cpus.iew.iewUnblockCycles        718125                       # Number of cycles IEW is unblocking
system.switch_cpus.iew.lsq.thread0.blockedLoads            0                       # Number of blocked loads due to partial load-store forwarding
system.switch_cpus.iew.lsq.thread0.cacheBlocked        28524                       # Number of times an access to memory failed due to the cache being blocked
system.switch_cpus.iew.lsq.thread0.forwLoads        53918                       # Number of loads that had data forwarded from stores
system.switch_cpus.iew.lsq.thread0.ignoredResponses          343                       # Number of memory responses ignored because the instruction is squashed
system.switch_cpus.iew.lsq.thread0.invAddrLoads            0                       # Number of loads ignored due to an invalid address
system.switch_cpus.iew.lsq.thread0.invAddrSwpfs            0                       # Number of software prefetches ignored due to an invalid address
system.switch_cpus.iew.lsq.thread0.memOrderViolation          333                       # Number of memory ordering violations
system.switch_cpus.iew.lsq.thread0.rescheduledLoads          202                       # Number of loads that were rescheduled
system.switch_cpus.iew.lsq.thread0.squashedLoads       560715                       # Number of loads squashed
system.switch_cpus.iew.lsq.thread0.squashedStores       109553                       # Number of stores squashed
system.switch_cpus.iew.memOrderViolationEvents          333                       # Number of memory order violations
system.switch_cpus.iew.predictedNotTakenIncorrect        29027                       # Number of branches that were predicted not taken incorrectly
system.switch_cpus.iew.predictedTakenIncorrect        57650                       # Number of branches that were predicted taken incorrectly
system.switch_cpus.iew.wb_consumers          24043799                       # num instructions consuming a value
system.switch_cpus.iew.wb_count              18613738                       # cumulative count of insts written-back
system.switch_cpus.iew.wb_fanout             0.596925                       # average fanout of values written-back
system.switch_cpus.iew.wb_producers          14352352                       # num instructions producing a value
system.switch_cpus.iew.wb_rate               1.031317                       # insts written-back per cycle
system.switch_cpus.iew.wb_sent               18647196                       # cumulative count of insts sent to commit
system.switch_cpus.int_regfile_reads         17182591                       # number of integer regfile reads
system.switch_cpus.int_regfile_writes         8220665                       # number of integer regfile writes
system.switch_cpus.ipc                       0.554062                       # IPC: Instructions Per Cycle
system.switch_cpus.ipc_total                 0.554062                       # IPC: Total IPC of All Threads
system.switch_cpus.iq.FU_type_0::No_OpClass        39017      0.20%      0.20% # Type of FU issued
system.switch_cpus.iq.FU_type_0::IntAlu       8756949     45.95%     46.16% # Type of FU issued
system.switch_cpus.iq.FU_type_0::IntMult          200      0.00%     46.16% # Type of FU issued
system.switch_cpus.iq.FU_type_0::IntDiv            88      0.00%     46.16% # Type of FU issued
system.switch_cpus.iq.FU_type_0::FloatAdd       967613      5.08%     51.23% # Type of FU issued
system.switch_cpus.iq.FU_type_0::FloatCmp            0      0.00%     51.23% # Type of FU issued
system.switch_cpus.iq.FU_type_0::FloatCvt            0      0.00%     51.23% # Type of FU issued
system.switch_cpus.iq.FU_type_0::FloatMult            0      0.00%     51.23% # Type of FU issued
system.switch_cpus.iq.FU_type_0::FloatMultAcc            0      0.00%     51.23% # Type of FU issued
system.switch_cpus.iq.FU_type_0::FloatDiv            0      0.00%     51.23% # Type of FU issued
system.switch_cpus.iq.FU_type_0::FloatMisc            0      0.00%     51.23% # Type of FU issued
system.switch_cpus.iq.FU_type_0::FloatSqrt            0      0.00%     51.23% # Type of FU issued
system.switch_cpus.iq.FU_type_0::SimdAdd            0      0.00%     51.23% # Type of FU issued
system.switch_cpus.iq.FU_type_0::SimdAddAcc            0      0.00%     51.23% # Type of FU issued
system.switch_cpus.iq.FU_type_0::SimdAlu      1449497      7.61%     58.84% # Type of FU issued
system.switch_cpus.iq.FU_type_0::SimdCmp            0      0.00%     58.84% # Type of FU issued
system.switch_cpus.iq.FU_type_0::SimdCvt            8      0.00%     58.84% # Type of FU issued
system.switch_cpus.iq.FU_type_0::SimdMisc        35271      0.19%     59.03% # Type of FU issued
system.switch_cpus.iq.FU_type_0::SimdMult            0      0.00%     59.03% # Type of FU issued
system.switch_cpus.iq.FU_type_0::SimdMultAcc            0      0.00%     59.03% # Type of FU issued
system.switch_cpus.iq.FU_type_0::SimdShift            0      0.00%     59.03% # Type of FU issued
system.switch_cpus.iq.FU_type_0::SimdShiftAcc            0      0.00%     59.03% # Type of FU issued
system.switch_cpus.iq.FU_type_0::SimdDiv            0      0.00%     59.03% # Type of FU issued
system.switch_cpus.iq.FU_type_0::SimdSqrt            0      0.00%     59.03% # Type of FU issued
system.switch_cpus.iq.FU_type_0::SimdFloatAdd      1317237      6.91%     65.94% # Type of FU issued
system.switch_cpus.iq.FU_type_0::SimdFloatAlu            0      0.00%     65.94% # Type of FU issued
system.switch_cpus.iq.FU_type_0::SimdFloatCmp        15453      0.08%     66.02% # Type of FU issued
system.switch_cpus.iq.FU_type_0::SimdFloatCvt      1409149      7.39%     73.41% # Type of FU issued
system.switch_cpus.iq.FU_type_0::SimdFloatDiv            0      0.00%     73.41% # Type of FU issued
system.switch_cpus.iq.FU_type_0::SimdFloatMisc            0      0.00%     73.41% # Type of FU issued
system.switch_cpus.iq.FU_type_0::SimdFloatMult      1352234      7.10%     80.51% # Type of FU issued
system.switch_cpus.iq.FU_type_0::SimdFloatMultAcc            0      0.00%     80.51% # Type of FU issued
system.switch_cpus.iq.FU_type_0::SimdFloatSqrt            0      0.00%     80.51% # Type of FU issued
system.switch_cpus.iq.FU_type_0::SimdReduceAdd            0      0.00%     80.51% # Type of FU issued
system.switch_cpus.iq.FU_type_0::SimdReduceAlu            0      0.00%     80.51% # Type of FU issued
system.switch_cpus.iq.FU_type_0::SimdReduceCmp            0      0.00%     80.51% # Type of FU issued
system.switch_cpus.iq.FU_type_0::SimdFloatReduceAdd            0      0.00%     80.51% # Type of FU issued
system.switch_cpus.iq.FU_type_0::SimdFloatReduceCmp            0      0.00%     80.51% # Type of FU issued
system.switch_cpus.iq.FU_type_0::SimdAes            0      0.00%     80.51% # Type of FU issued
system.switch_cpus.iq.FU_type_0::SimdAesMix            0      0.00%     80.51% # Type of FU issued
system.switch_cpus.iq.FU_type_0::SimdSha1Hash            0      0.00%     80.51% # Type of FU issued
system.switch_cpus.iq.FU_type_0::SimdSha1Hash2            0      0.00%     80.51% # Type of FU issued
system.switch_cpus.iq.FU_type_0::SimdSha256Hash            0      0.00%     80.51% # Type of FU issued
system.switch_cpus.iq.FU_type_0::SimdSha256Hash2            0      0.00%     80.51% # Type of FU issued
system.switch_cpus.iq.FU_type_0::SimdShaSigma2            0      0.00%     80.51% # Type of FU issued
system.switch_cpus.iq.FU_type_0::SimdShaSigma3            0      0.00%     80.51% # Type of FU issued
system.switch_cpus.iq.FU_type_0::SimdPredAlu            0      0.00%     80.51% # Type of FU issued
system.switch_cpus.iq.FU_type_0::MemRead      1358358      7.13%     87.64% # Type of FU issued
system.switch_cpus.iq.FU_type_0::MemWrite       332302      1.74%     89.38% # Type of FU issued
system.switch_cpus.iq.FU_type_0::FloatMemRead      1978063     10.38%     99.76% # Type of FU issued
system.switch_cpus.iq.FU_type_0::FloatMemWrite        45943      0.24%    100.00% # Type of FU issued
system.switch_cpus.iq.FU_type_0::IprAccess            0      0.00%    100.00% # Type of FU issued
system.switch_cpus.iq.FU_type_0::InstPrefetch            0      0.00%    100.00% # Type of FU issued
system.switch_cpus.iq.FU_type_0::total       19057382                       # Type of FU issued
system.switch_cpus.iq.fp_alu_accesses         9282248                       # Number of floating point alu accesses
system.switch_cpus.iq.fp_inst_queue_reads     18360565                       # Number of floating instruction queue reads
system.switch_cpus.iq.fp_inst_queue_wakeup_accesses      8915103                       # Number of floating instruction queue wakeup accesses
system.switch_cpus.iq.fp_inst_queue_writes      9730557                       # Number of floating instruction queue writes
system.switch_cpus.iq.fu_busy_cnt              349929                       # FU busy when requested
system.switch_cpus.iq.fu_busy_rate           0.018362                       # FU busy rate (busy events/executed inst)
system.switch_cpus.iq.fu_full::No_OpClass            0      0.00%      0.00% # attempts to use FU when none available
system.switch_cpus.iq.fu_full::IntAlu          103232     29.50%     29.50% # attempts to use FU when none available
system.switch_cpus.iq.fu_full::IntMult              0      0.00%     29.50% # attempts to use FU when none available
system.switch_cpus.iq.fu_full::IntDiv               0      0.00%     29.50% # attempts to use FU when none available
system.switch_cpus.iq.fu_full::FloatAdd             0      0.00%     29.50% # attempts to use FU when none available
system.switch_cpus.iq.fu_full::FloatCmp             0      0.00%     29.50% # attempts to use FU when none available
system.switch_cpus.iq.fu_full::FloatCvt             0      0.00%     29.50% # attempts to use FU when none available
system.switch_cpus.iq.fu_full::FloatMult            0      0.00%     29.50% # attempts to use FU when none available
system.switch_cpus.iq.fu_full::FloatMultAcc            0      0.00%     29.50% # attempts to use FU when none available
system.switch_cpus.iq.fu_full::FloatDiv             0      0.00%     29.50% # attempts to use FU when none available
system.switch_cpus.iq.fu_full::FloatMisc            0      0.00%     29.50% # attempts to use FU when none available
system.switch_cpus.iq.fu_full::FloatSqrt            0      0.00%     29.50% # attempts to use FU when none available
system.switch_cpus.iq.fu_full::SimdAdd              0      0.00%     29.50% # attempts to use FU when none available
system.switch_cpus.iq.fu_full::SimdAddAcc            0      0.00%     29.50% # attempts to use FU when none available
system.switch_cpus.iq.fu_full::SimdAlu          61548     17.59%     47.09% # attempts to use FU when none available
system.switch_cpus.iq.fu_full::SimdCmp              0      0.00%     47.09% # attempts to use FU when none available
system.switch_cpus.iq.fu_full::SimdCvt              0      0.00%     47.09% # attempts to use FU when none available
system.switch_cpus.iq.fu_full::SimdMisc             0      0.00%     47.09% # attempts to use FU when none available
system.switch_cpus.iq.fu_full::SimdMult             0      0.00%     47.09% # attempts to use FU when none available
system.switch_cpus.iq.fu_full::SimdMultAcc            0      0.00%     47.09% # attempts to use FU when none available
system.switch_cpus.iq.fu_full::SimdShift            0      0.00%     47.09% # attempts to use FU when none available
system.switch_cpus.iq.fu_full::SimdShiftAcc            0      0.00%     47.09% # attempts to use FU when none available
system.switch_cpus.iq.fu_full::SimdDiv              0      0.00%     47.09% # attempts to use FU when none available
system.switch_cpus.iq.fu_full::SimdSqrt             0      0.00%     47.09% # attempts to use FU when none available
system.switch_cpus.iq.fu_full::SimdFloatAdd        84344     24.10%     71.19% # attempts to use FU when none available
system.switch_cpus.iq.fu_full::SimdFloatAlu            0      0.00%     71.19% # attempts to use FU when none available
system.switch_cpus.iq.fu_full::SimdFloatCmp            0      0.00%     71.19% # attempts to use FU when none available
system.switch_cpus.iq.fu_full::SimdFloatCvt        23281      6.65%     77.85% # attempts to use FU when none available
system.switch_cpus.iq.fu_full::SimdFloatDiv            0      0.00%     77.85% # attempts to use FU when none available
system.switch_cpus.iq.fu_full::SimdFloatMisc            0      0.00%     77.85% # attempts to use FU when none available
system.switch_cpus.iq.fu_full::SimdFloatMult         3105      0.89%     78.73% # attempts to use FU when none available
system.switch_cpus.iq.fu_full::SimdFloatMultAcc            0      0.00%     78.73% # attempts to use FU when none available
system.switch_cpus.iq.fu_full::SimdFloatSqrt            0      0.00%     78.73% # attempts to use FU when none available
system.switch_cpus.iq.fu_full::SimdReduceAdd            0      0.00%     78.73% # attempts to use FU when none available
system.switch_cpus.iq.fu_full::SimdReduceAlu            0      0.00%     78.73% # attempts to use FU when none available
system.switch_cpus.iq.fu_full::SimdReduceCmp            0      0.00%     78.73% # attempts to use FU when none available
system.switch_cpus.iq.fu_full::SimdFloatReduceAdd            0      0.00%     78.73% # attempts to use FU when none available
system.switch_cpus.iq.fu_full::SimdFloatReduceCmp            0      0.00%     78.73% # attempts to use FU when none available
system.switch_cpus.iq.fu_full::SimdAes              0      0.00%     78.73% # attempts to use FU when none available
system.switch_cpus.iq.fu_full::SimdAesMix            0      0.00%     78.73% # attempts to use FU when none available
system.switch_cpus.iq.fu_full::SimdSha1Hash            0      0.00%     78.73% # attempts to use FU when none available
system.switch_cpus.iq.fu_full::SimdSha1Hash2            0      0.00%     78.73% # attempts to use FU when none available
system.switch_cpus.iq.fu_full::SimdSha256Hash            0      0.00%     78.73% # attempts to use FU when none available
system.switch_cpus.iq.fu_full::SimdSha256Hash2            0      0.00%     78.73% # attempts to use FU when none available
system.switch_cpus.iq.fu_full::SimdShaSigma2            0      0.00%     78.73% # attempts to use FU when none available
system.switch_cpus.iq.fu_full::SimdShaSigma3            0      0.00%     78.73% # attempts to use FU when none available
system.switch_cpus.iq.fu_full::SimdPredAlu            0      0.00%     78.73% # attempts to use FU when none available
system.switch_cpus.iq.fu_full::MemRead          32543      9.30%     88.03% # attempts to use FU when none available
system.switch_cpus.iq.fu_full::MemWrite          6433      1.84%     89.87% # attempts to use FU when none available
system.switch_cpus.iq.fu_full::FloatMemRead        35370     10.11%     99.98% # attempts to use FU when none available
system.switch_cpus.iq.fu_full::FloatMemWrite           73      0.02%    100.00% # attempts to use FU when none available
system.switch_cpus.iq.fu_full::IprAccess            0      0.00%    100.00% # attempts to use FU when none available
system.switch_cpus.iq.fu_full::InstPrefetch            0      0.00%    100.00% # attempts to use FU when none available
system.switch_cpus.iq.int_alu_accesses       10086046                       # Number of integer alu accesses
system.switch_cpus.iq.int_inst_queue_reads     38141725                       # Number of integer instruction queue reads
system.switch_cpus.iq.int_inst_queue_wakeup_accesses      9698635                       # Number of integer instruction queue wakeup accesses
system.switch_cpus.iq.int_inst_queue_writes     13188491                       # Number of integer instruction queue writes
system.switch_cpus.iq.iqInstsAdded           19897523                       # Number of instructions added to the IQ (excludes non-spec)
system.switch_cpus.iq.iqInstsIssued          19057382                       # Number of instructions issued
system.switch_cpus.iq.iqNonSpecInstsAdded           76                       # Number of non-speculative instructions added to the IQ
system.switch_cpus.iq.iqSquashedInstsExamined      3021160                       # Number of squashed instructions iterated over during squash; mainly for profiling
system.switch_cpus.iq.iqSquashedInstsIssued        45783                       # Number of squashed instructions issued
system.switch_cpus.iq.iqSquashedNonSpecRemoved           76                       # Number of squashed non-spec instructions that were removed
system.switch_cpus.iq.iqSquashedOperandsExamined      4179096                       # Number of squashed operands that are examined and possibly removed from graph
system.switch_cpus.iq.issued_per_cycle::samples     17991816                       # Number of insts issued each cycle
system.switch_cpus.iq.issued_per_cycle::mean     1.059225                       # Number of insts issued each cycle
system.switch_cpus.iq.issued_per_cycle::stdev     1.925551                       # Number of insts issued each cycle
system.switch_cpus.iq.issued_per_cycle::underflows            0      0.00%      0.00% # Number of insts issued each cycle
system.switch_cpus.iq.issued_per_cycle::0     12193216     67.77%     67.77% # Number of insts issued each cycle
system.switch_cpus.iq.issued_per_cycle::1      1476593      8.21%     75.98% # Number of insts issued each cycle
system.switch_cpus.iq.issued_per_cycle::2      1060502      5.89%     81.87% # Number of insts issued each cycle
system.switch_cpus.iq.issued_per_cycle::3       906712      5.04%     86.91% # Number of insts issued each cycle
system.switch_cpus.iq.issued_per_cycle::4       787900      4.38%     91.29% # Number of insts issued each cycle
system.switch_cpus.iq.issued_per_cycle::5       565262      3.14%     94.43% # Number of insts issued each cycle
system.switch_cpus.iq.issued_per_cycle::6       471737      2.62%     97.05% # Number of insts issued each cycle
system.switch_cpus.iq.issued_per_cycle::7       307835      1.71%     98.77% # Number of insts issued each cycle
system.switch_cpus.iq.issued_per_cycle::8       222059      1.23%    100.00% # Number of insts issued each cycle
system.switch_cpus.iq.issued_per_cycle::overflows            0      0.00%    100.00% # Number of insts issued each cycle
system.switch_cpus.iq.issued_per_cycle::min_value            0                       # Number of insts issued each cycle
system.switch_cpus.iq.issued_per_cycle::max_value            8                       # Number of insts issued each cycle
system.switch_cpus.iq.issued_per_cycle::total     17991816                       # Number of insts issued each cycle
system.switch_cpus.iq.rate                   1.055898                       # Inst issue rate
system.switch_cpus.iq.vec_alu_accesses              0                       # Number of vector alu accesses
system.switch_cpus.iq.vec_inst_queue_reads            0                       # Number of vector instruction queue reads
system.switch_cpus.iq.vec_inst_queue_wakeup_accesses            0                       # Number of vector instruction queue wakeup accesses
system.switch_cpus.iq.vec_inst_queue_writes            0                       # Number of vector instruction queue writes
system.switch_cpus.itb.rdAccesses                   0                       # TLB accesses on read requests
system.switch_cpus.itb.rdMisses                     0                       # TLB misses on read requests
system.switch_cpus.itb.wrAccesses             1743252                       # TLB accesses on write requests
system.switch_cpus.itb.wrMisses                   422                       # TLB misses on write requests
system.switch_cpus.memDep0.conflictingLoads        51902                       # Number of conflicting loads.
system.switch_cpus.memDep0.conflictingStores        20949                       # Number of conflicting stores.
system.switch_cpus.memDep0.insertedLoads      3303904                       # Number of loads inserted to the mem dependence unit.
system.switch_cpus.memDep0.insertedStores       429953                       # Number of stores inserted to the mem dependence unit.
system.switch_cpus.misc_regfile_reads         6126105                       # number of misc regfile reads
system.switch_cpus.misc_regfile_writes              1                       # number of misc regfile writes
system.switch_cpus.numCycles                 18048515                       # number of cpu cycles simulated
system.switch_cpus.numWorkItemsCompleted            0                       # number of work items this cpu completed
system.switch_cpus.numWorkItemsStarted              0                       # number of work items this cpu started
system.switch_cpus.rename.BlockCycles        11175619                       # Number of cycles rename is blocking
system.switch_cpus.rename.CommittedMaps      19414366                       # Number of HB maps that are committed
system.switch_cpus.rename.IQFullEvents        1402628                       # Number of times rename has blocked due to IQ full
system.switch_cpus.rename.IdleCycles          1535661                       # Number of cycles rename is idle
system.switch_cpus.rename.LQFullEvents         500050                       # Number of times rename has blocked due to LQ full
system.switch_cpus.rename.ROBFullEvents        142379                       # Number of times rename has blocked due to ROB full
system.switch_cpus.rename.RenameLookups      49368343                       # Number of register rename lookups that rename has made
system.switch_cpus.rename.RenamedInsts       20453171                       # Number of instructions processed by rename
system.switch_cpus.rename.RenamedOperands     23694589                       # Number of destination operands rename has renamed
system.switch_cpus.rename.RunCycles           2581264                       # Number of cycles rename is running
system.switch_cpus.rename.SQFullEvents         449330                       # Number of times rename has blocked due to SQ full
system.switch_cpus.rename.SquashCycles          77298                       # Number of cycles rename is squashing
system.switch_cpus.rename.UnblockCycles       2621966                       # Number of cycles rename is unblocking
system.switch_cpus.rename.UndoneMaps          4280091                       # Number of HB maps that are undone due to squashing
system.switch_cpus.rename.fp_rename_lookups     15649083                       # Number of floating rename lookups
system.switch_cpus.rename.int_rename_lookups     19348046                       # Number of integer rename lookups
system.switch_cpus.rename.serializeStallCycles            4                       # count of cycles rename stalled for serializing inst
system.switch_cpus.rename.serializingInsts            1                       # count of serializing insts renamed
system.switch_cpus.rename.skidInsts           4283475                       # count of insts added to the skid buffer
system.switch_cpus.rename.tempSerializingInsts            1                       # count of temporary serializing insts renamed
system.switch_cpus.rob.rob_reads             36015419                       # The number of ROB reads
system.switch_cpus.rob.rob_writes            40228431                       # The number of ROB writes
system.switch_cpus.timesIdled                     622                       # Number of times that the entire CPU went into an idle state and unscheduled itself
system.tol2bus.snoop_filter.hit_multi_requests            0                       # Number of requests hitting in the snoop filter with multiple (>1) holders of the requested data.
system.tol2bus.snoop_filter.hit_multi_snoops            0                       # Number of snoops hitting in the snoop filter with multiple (>1) holders of the requested data.
system.tol2bus.snoop_filter.hit_single_requests       205872                       # Number of requests hitting in the snoop filter with a single holder of the requested data.
system.tol2bus.snoop_filter.hit_single_snoops        33501                       # Number of snoops hitting in the snoop filter with a single holder of the requested data.
system.tol2bus.snoop_filter.tot_requests       413230                       # Total number of requests made to the snoop filter.
system.tol2bus.snoop_filter.tot_snoops          33501                       # Total number of snoops made to the snoop filter.
system.membus.pwrStateResidencyTicks::UNDEFINED 359103532107500                       # Cumulative time (in ticks) in various power states
system.membus.trans_dist::ReadResp             154337                       # Transaction distribution
system.membus.trans_dist::WritebackDirty        13679                       # Transaction distribution
system.membus.trans_dist::CleanEvict           140204                       # Transaction distribution
system.membus.trans_dist::ReadExReq              8395                       # Transaction distribution
system.membus.trans_dist::ReadExResp             8395                       # Transaction distribution
system.membus.trans_dist::ReadSharedReq        154338                       # Transaction distribution
system.membus.pkt_count_system.l2.mem_side::system.mem_ctrls.port       479348                       # Packet count per connected master and slave (bytes)
system.membus.pkt_count_system.l2.mem_side::total       479348                       # Packet count per connected master and slave (bytes)
system.membus.pkt_count::total                 479348                       # Packet count per connected master and slave (bytes)
system.membus.pkt_size_system.l2.mem_side::system.mem_ctrls.port     11290304                       # Cumulative packet size per connected master and slave (bytes)
system.membus.pkt_size_system.l2.mem_side::total     11290304                       # Cumulative packet size per connected master and slave (bytes)
system.membus.pkt_size::total                11290304                       # Cumulative packet size per connected master and slave (bytes)
system.membus.snoops                                0                       # Total snoops (count)
system.membus.snoopTraffic                          0                       # Total snoop traffic (bytes)
system.membus.snoop_fanout::samples            162733                       # Request fanout histogram
system.membus.snoop_fanout::mean                    0                       # Request fanout histogram
system.membus.snoop_fanout::stdev                   0                       # Request fanout histogram
system.membus.snoop_fanout::underflows              0      0.00%      0.00% # Request fanout histogram
system.membus.snoop_fanout::0                  162733    100.00%    100.00% # Request fanout histogram
system.membus.snoop_fanout::1                       0      0.00%    100.00% # Request fanout histogram
system.membus.snoop_fanout::overflows               0      0.00%    100.00% # Request fanout histogram
system.membus.snoop_fanout::min_value               0                       # Request fanout histogram
system.membus.snoop_fanout::max_value               0                       # Request fanout histogram
system.membus.snoop_fanout::total              162733                       # Request fanout histogram
system.membus.reqLayer2.occupancy           404850500                       # Layer occupancy (ticks)
system.membus.reqLayer2.utilization               4.5                       # Layer utilization (%)
system.membus.respLayer1.occupancy          870937500                       # Layer occupancy (ticks)
system.membus.respLayer1.utilization              9.7                       # Layer utilization (%)
system.switch_cpus.pwrStateResidencyTicks::OFF   9024267500                       # Cumulative time (in ticks) in various power states
system.switch_cpus.dtb.walker.pwrStateResidencyTicks::UNDEFINED 359103532107500                       # Cumulative time (in ticks) in various power states
system.switch_cpus.itb.walker.pwrStateResidencyTicks::UNDEFINED 359103532107500                       # Cumulative time (in ticks) in various power states
system.tol2bus.pwrStateResidencyTicks::UNDEFINED 359103532107500                       # Cumulative time (in ticks) in various power states
system.tol2bus.trans_dist::ReadResp            197271                       # Transaction distribution
system.tol2bus.trans_dist::WritebackDirty        52118                       # Transaction distribution
system.tol2bus.trans_dist::WritebackClean          471                       # Transaction distribution
system.tol2bus.trans_dist::CleanEvict          310452                       # Transaction distribution
system.tol2bus.trans_dist::ReadExReq            10085                       # Transaction distribution
system.tol2bus.trans_dist::ReadExResp           10085                       # Transaction distribution
system.tol2bus.trans_dist::ReadCleanReq           931                       # Transaction distribution
system.tol2bus.trans_dist::ReadSharedReq       196342                       # Transaction distribution
system.tol2bus.pkt_count_system.cpu.icache.mem_side::system.l2.cpu_side         2333                       # Packet count per connected master and slave (bytes)
system.tol2bus.pkt_count_system.cpu.dcache.mem_side::system.l2.cpu_side       618253                       # Packet count per connected master and slave (bytes)
system.tol2bus.pkt_count::total                620586                       # Packet count per connected master and slave (bytes)
system.tol2bus.pkt_size_system.cpu.icache.mem_side::system.l2.cpu_side        89728                       # Cumulative packet size per connected master and slave (bytes)
system.tol2bus.pkt_size_system.cpu.dcache.mem_side::system.l2.cpu_side     15671296                       # Cumulative packet size per connected master and slave (bytes)
system.tol2bus.pkt_size::total               15761024                       # Cumulative packet size per connected master and slave (bytes)
system.tol2bus.snoops                          157169                       # Total snoops (count)
system.tol2bus.snoopTraffic                    875456                       # Total snoop traffic (bytes)
system.tol2bus.snoop_fanout::samples           364527                       # Request fanout histogram
system.tol2bus.snoop_fanout::mean            0.091903                       # Request fanout histogram
system.tol2bus.snoop_fanout::stdev           0.288889                       # Request fanout histogram
system.tol2bus.snoop_fanout::underflows             0      0.00%      0.00% # Request fanout histogram
system.tol2bus.snoop_fanout::0                 331026     90.81%     90.81% # Request fanout histogram
system.tol2bus.snoop_fanout::1                  33501      9.19%    100.00% # Request fanout histogram
system.tol2bus.snoop_fanout::2                      0      0.00%    100.00% # Request fanout histogram
system.tol2bus.snoop_fanout::3                      0      0.00%    100.00% # Request fanout histogram
system.tol2bus.snoop_fanout::4                      0      0.00%    100.00% # Request fanout histogram
system.tol2bus.snoop_fanout::overflows              0      0.00%    100.00% # Request fanout histogram
system.tol2bus.snoop_fanout::min_value              0                       # Request fanout histogram
system.tol2bus.snoop_fanout::max_value              1                       # Request fanout histogram
system.tol2bus.snoop_fanout::total             364527                       # Request fanout histogram
system.tol2bus.reqLayer0.occupancy          245522500                       # Layer occupancy (ticks)
system.tol2bus.reqLayer0.utilization              2.7                       # Layer utilization (%)
system.tol2bus.respLayer1.occupancy         309633998                       # Layer occupancy (ticks)
system.tol2bus.respLayer1.utilization             3.4                       # Layer utilization (%)
system.tol2bus.respLayer0.occupancy           1394498                       # Layer occupancy (ticks)
system.tol2bus.respLayer0.utilization             0.0                       # Layer utilization (%)
system.voltage_domain.voltage                       1                       # Voltage in Volts
system.clk_domain.clock                          1000                       # Clock period in ticks
system.l2.pwrStateResidencyTicks::UNDEFINED 359103532107500                       # Cumulative time (in ticks) in various power states
system.l2.demand_hits::.switch_cpus.inst           68                       # number of demand (read+write) hits
system.l2.demand_hits::.switch_cpus.data        44556                       # number of demand (read+write) hits
system.l2.demand_hits::total                    44624                       # number of demand (read+write) hits
system.l2.overall_hits::.switch_cpus.inst           68                       # number of overall hits
system.l2.overall_hits::.switch_cpus.data        44556                       # number of overall hits
system.l2.overall_hits::total                   44624                       # number of overall hits
system.l2.demand_misses::.cpu.inst                  2                       # number of demand (read+write) misses
system.l2.demand_misses::.cpu.data                  3                       # number of demand (read+write) misses
system.l2.demand_misses::.switch_cpus.inst          861                       # number of demand (read+write) misses
system.l2.demand_misses::.switch_cpus.data       161868                       # number of demand (read+write) misses
system.l2.demand_misses::total                 162734                       # number of demand (read+write) misses
system.l2.overall_misses::.cpu.inst                 2                       # number of overall misses
system.l2.overall_misses::.cpu.data                 3                       # number of overall misses
system.l2.overall_misses::.switch_cpus.inst          861                       # number of overall misses
system.l2.overall_misses::.switch_cpus.data       161868                       # number of overall misses
system.l2.overall_misses::total                162734                       # number of overall misses
system.l2.demand_miss_latency::.switch_cpus.inst     72190500                       # number of demand (read+write) miss cycles
system.l2.demand_miss_latency::.switch_cpus.data  13407992500                       # number of demand (read+write) miss cycles
system.l2.demand_miss_latency::total      13480183000                       # number of demand (read+write) miss cycles
system.l2.overall_miss_latency::.switch_cpus.inst     72190500                       # number of overall miss cycles
system.l2.overall_miss_latency::.switch_cpus.data  13407992500                       # number of overall miss cycles
system.l2.overall_miss_latency::total     13480183000                       # number of overall miss cycles
system.l2.demand_accesses::.cpu.inst                2                       # number of demand (read+write) accesses
system.l2.demand_accesses::.cpu.data                3                       # number of demand (read+write) accesses
system.l2.demand_accesses::.switch_cpus.inst          929                       # number of demand (read+write) accesses
system.l2.demand_accesses::.switch_cpus.data       206424                       # number of demand (read+write) accesses
system.l2.demand_accesses::total               207358                       # number of demand (read+write) accesses
system.l2.overall_accesses::.cpu.inst               2                       # number of overall (read+write) accesses
system.l2.overall_accesses::.cpu.data               3                       # number of overall (read+write) accesses
system.l2.overall_accesses::.switch_cpus.inst          929                       # number of overall (read+write) accesses
system.l2.overall_accesses::.switch_cpus.data       206424                       # number of overall (read+write) accesses
system.l2.overall_accesses::total              207358                       # number of overall (read+write) accesses
system.l2.demand_miss_rate::.cpu.inst               1                       # miss rate for demand accesses
system.l2.demand_miss_rate::.cpu.data               1                       # miss rate for demand accesses
system.l2.demand_miss_rate::.switch_cpus.inst     0.926803                       # miss rate for demand accesses
system.l2.demand_miss_rate::.switch_cpus.data     0.784153                       # miss rate for demand accesses
system.l2.demand_miss_rate::total            0.784797                       # miss rate for demand accesses
system.l2.overall_miss_rate::.cpu.inst              1                       # miss rate for overall accesses
system.l2.overall_miss_rate::.cpu.data              1                       # miss rate for overall accesses
system.l2.overall_miss_rate::.switch_cpus.inst     0.926803                       # miss rate for overall accesses
system.l2.overall_miss_rate::.switch_cpus.data     0.784153                       # miss rate for overall accesses
system.l2.overall_miss_rate::total           0.784797                       # miss rate for overall accesses
system.l2.demand_avg_miss_latency::.switch_cpus.inst 83844.947735                       # average overall miss latency
system.l2.demand_avg_miss_latency::.switch_cpus.data 82832.879260                       # average overall miss latency
system.l2.demand_avg_miss_latency::total 82835.688916                       # average overall miss latency
system.l2.overall_avg_miss_latency::.switch_cpus.inst 83844.947735                       # average overall miss latency
system.l2.overall_avg_miss_latency::.switch_cpus.data 82832.879260                       # average overall miss latency
system.l2.overall_avg_miss_latency::total 82835.688916                       # average overall miss latency
system.l2.blocked_cycles::no_mshrs                  0                       # number of cycles access was blocked
system.l2.blocked_cycles::no_targets                0                       # number of cycles access was blocked
system.l2.blocked::no_mshrs                         0                       # number of cycles access was blocked
system.l2.blocked::no_targets                       0                       # number of cycles access was blocked
system.l2.avg_blocked_cycles::no_mshrs            nan                       # average number of cycles each access was blocked
system.l2.avg_blocked_cycles::no_targets          nan                       # average number of cycles each access was blocked
system.l2.writebacks::.writebacks               13679                       # number of writebacks
system.l2.writebacks::total                     13679                       # number of writebacks
system.l2.demand_mshr_misses::.switch_cpus.inst          861                       # number of demand (read+write) MSHR misses
system.l2.demand_mshr_misses::.switch_cpus.data       161868                       # number of demand (read+write) MSHR misses
system.l2.demand_mshr_misses::total            162729                       # number of demand (read+write) MSHR misses
system.l2.overall_mshr_misses::.switch_cpus.inst          861                       # number of overall MSHR misses
system.l2.overall_mshr_misses::.switch_cpus.data       161868                       # number of overall MSHR misses
system.l2.overall_mshr_misses::total           162729                       # number of overall MSHR misses
system.l2.demand_mshr_miss_latency::.switch_cpus.inst     63580500                       # number of demand (read+write) MSHR miss cycles
system.l2.demand_mshr_miss_latency::.switch_cpus.data  11789332500                       # number of demand (read+write) MSHR miss cycles
system.l2.demand_mshr_miss_latency::total  11852913000                       # number of demand (read+write) MSHR miss cycles
system.l2.overall_mshr_miss_latency::.switch_cpus.inst     63580500                       # number of overall MSHR miss cycles
system.l2.overall_mshr_miss_latency::.switch_cpus.data  11789332500                       # number of overall MSHR miss cycles
system.l2.overall_mshr_miss_latency::total  11852913000                       # number of overall MSHR miss cycles
system.l2.demand_mshr_miss_rate::.switch_cpus.inst     0.926803                       # mshr miss rate for demand accesses
system.l2.demand_mshr_miss_rate::.switch_cpus.data     0.784153                       # mshr miss rate for demand accesses
system.l2.demand_mshr_miss_rate::total       0.784773                       # mshr miss rate for demand accesses
system.l2.overall_mshr_miss_rate::.switch_cpus.inst     0.926803                       # mshr miss rate for overall accesses
system.l2.overall_mshr_miss_rate::.switch_cpus.data     0.784153                       # mshr miss rate for overall accesses
system.l2.overall_mshr_miss_rate::total      0.784773                       # mshr miss rate for overall accesses
system.l2.demand_avg_mshr_miss_latency::.switch_cpus.inst 73844.947735                       # average overall mshr miss latency
system.l2.demand_avg_mshr_miss_latency::.switch_cpus.data 72833.002817                       # average overall mshr miss latency
system.l2.demand_avg_mshr_miss_latency::total 72838.357023                       # average overall mshr miss latency
system.l2.overall_avg_mshr_miss_latency::.switch_cpus.inst 73844.947735                       # average overall mshr miss latency
system.l2.overall_avg_mshr_miss_latency::.switch_cpus.data 72833.002817                       # average overall mshr miss latency
system.l2.overall_avg_mshr_miss_latency::total 72838.357023                       # average overall mshr miss latency
system.l2.replacements                         157169                       # number of replacements
system.l2.WritebackDirty_hits::.writebacks        38439                       # number of WritebackDirty hits
system.l2.WritebackDirty_hits::total            38439                       # number of WritebackDirty hits
system.l2.WritebackDirty_accesses::.writebacks        38439                       # number of WritebackDirty accesses(hits+misses)
system.l2.WritebackDirty_accesses::total        38439                       # number of WritebackDirty accesses(hits+misses)
system.l2.WritebackClean_hits::.writebacks          471                       # number of WritebackClean hits
system.l2.WritebackClean_hits::total              471                       # number of WritebackClean hits
system.l2.WritebackClean_accesses::.writebacks          471                       # number of WritebackClean accesses(hits+misses)
system.l2.WritebackClean_accesses::total          471                       # number of WritebackClean accesses(hits+misses)
system.l2.CleanEvict_mshr_misses::.writebacks        30216                       # number of CleanEvict MSHR misses
system.l2.CleanEvict_mshr_misses::total         30216                       # number of CleanEvict MSHR misses
system.l2.CleanEvict_mshr_miss_rate::.writebacks          inf                       # mshr miss rate for CleanEvict accesses
system.l2.CleanEvict_mshr_miss_rate::total          inf                       # mshr miss rate for CleanEvict accesses
system.l2.ReadExReq_hits::.switch_cpus.data         1690                       # number of ReadExReq hits
system.l2.ReadExReq_hits::total                  1690                       # number of ReadExReq hits
system.l2.ReadExReq_misses::.switch_cpus.data         8395                       # number of ReadExReq misses
system.l2.ReadExReq_misses::total                8395                       # number of ReadExReq misses
system.l2.ReadExReq_miss_latency::.switch_cpus.data    687721500                       # number of ReadExReq miss cycles
system.l2.ReadExReq_miss_latency::total     687721500                       # number of ReadExReq miss cycles
system.l2.ReadExReq_accesses::.switch_cpus.data        10085                       # number of ReadExReq accesses(hits+misses)
system.l2.ReadExReq_accesses::total             10085                       # number of ReadExReq accesses(hits+misses)
system.l2.ReadExReq_miss_rate::.switch_cpus.data     0.832424                       # miss rate for ReadExReq accesses
system.l2.ReadExReq_miss_rate::total         0.832424                       # miss rate for ReadExReq accesses
system.l2.ReadExReq_avg_miss_latency::.switch_cpus.data 81920.369267                       # average ReadExReq miss latency
system.l2.ReadExReq_avg_miss_latency::total 81920.369267                       # average ReadExReq miss latency
system.l2.ReadExReq_mshr_misses::.switch_cpus.data         8395                       # number of ReadExReq MSHR misses
system.l2.ReadExReq_mshr_misses::total           8395                       # number of ReadExReq MSHR misses
system.l2.ReadExReq_mshr_miss_latency::.switch_cpus.data    603771500                       # number of ReadExReq MSHR miss cycles
system.l2.ReadExReq_mshr_miss_latency::total    603771500                       # number of ReadExReq MSHR miss cycles
system.l2.ReadExReq_mshr_miss_rate::.switch_cpus.data     0.832424                       # mshr miss rate for ReadExReq accesses
system.l2.ReadExReq_mshr_miss_rate::total     0.832424                       # mshr miss rate for ReadExReq accesses
system.l2.ReadExReq_avg_mshr_miss_latency::.switch_cpus.data 71920.369267                       # average ReadExReq mshr miss latency
system.l2.ReadExReq_avg_mshr_miss_latency::total 71920.369267                       # average ReadExReq mshr miss latency
system.l2.ReadCleanReq_hits::.switch_cpus.inst           68                       # number of ReadCleanReq hits
system.l2.ReadCleanReq_hits::total                 68                       # number of ReadCleanReq hits
system.l2.ReadCleanReq_misses::.cpu.inst            2                       # number of ReadCleanReq misses
system.l2.ReadCleanReq_misses::.switch_cpus.inst          861                       # number of ReadCleanReq misses
system.l2.ReadCleanReq_misses::total              863                       # number of ReadCleanReq misses
system.l2.ReadCleanReq_miss_latency::.switch_cpus.inst     72190500                       # number of ReadCleanReq miss cycles
system.l2.ReadCleanReq_miss_latency::total     72190500                       # number of ReadCleanReq miss cycles
system.l2.ReadCleanReq_accesses::.cpu.inst            2                       # number of ReadCleanReq accesses(hits+misses)
system.l2.ReadCleanReq_accesses::.switch_cpus.inst          929                       # number of ReadCleanReq accesses(hits+misses)
system.l2.ReadCleanReq_accesses::total            931                       # number of ReadCleanReq accesses(hits+misses)
system.l2.ReadCleanReq_miss_rate::.cpu.inst            1                       # miss rate for ReadCleanReq accesses
system.l2.ReadCleanReq_miss_rate::.switch_cpus.inst     0.926803                       # miss rate for ReadCleanReq accesses
system.l2.ReadCleanReq_miss_rate::total      0.926960                       # miss rate for ReadCleanReq accesses
system.l2.ReadCleanReq_avg_miss_latency::.switch_cpus.inst 83844.947735                       # average ReadCleanReq miss latency
[...]
system.cpu.icache.tags.data_accesses         13986729                       # Number of data accesses
system.cpu.dtb.walker.pwrStateResidencyTicks::UNDEFINED 359130840256000                       # Cumulative time (in ticks) in various power states
system.cpu.interrupts.clk_domain.clock           8000                       # Clock period in ticks
system.cpu.itb_walker_cache.pwrStateResidencyTicks::UNDEFINED 359130840256000                       # Cumulative time (in ticks) in various power states
system.cpu.itb_walker_cache.blocked_cycles::no_mshrs            0                       # number of cycles access was blocked
system.cpu.itb_walker_cache.blocked_cycles::no_targets            0                       # number of cycles access was blocked
system.cpu.itb_walker_cache.blocked::no_mshrs            0                       # number of cycles access was blocked
system.cpu.itb_walker_cache.blocked::no_targets            0                       # number of cycles access was blocked
system.cpu.itb_walker_cache.avg_blocked_cycles::no_mshrs          nan                       # average number of cycles each access was blocked
system.cpu.itb_walker_cache.avg_blocked_cycles::no_targets          nan                       # average number of cycles each access was blocked
system.cpu.itb_walker_cache.replacements            0                       # number of replacements
system.cpu.itb_walker_cache.tags.pwrStateResidencyTicks::UNDEFINED 359130840256000                       # Cumulative time (in ticks) in various power states
system.cpu.itb_walker_cache.tags.tagsinuse            0                       # Cycle average of tags in use
system.cpu.itb_walker_cache.tags.total_refs            0                       # Total number of references to valid blocks.
system.cpu.itb_walker_cache.tags.sampled_refs            0                       # Sample count of references to valid blocks.
system.cpu.itb_walker_cache.tags.avg_refs          nan                       # Average number of references to valid blocks.
system.cpu.itb_walker_cache.tags.warmup_cycle            0                       # Cycle when the warmup percentage was hit.
system.cpu.itb_walker_cache.tags.tag_accesses            0                       # Number of tag accesses
system.cpu.itb_walker_cache.tags.data_accesses            0                       # Number of data accesses
system.cpu.itb.walker.pwrStateResidencyTicks::UNDEFINED 359130840256000                       # Cumulative time (in ticks) in various power states
system.cpu.dtb_walker_cache.pwrStateResidencyTicks::UNDEFINED 359130840256000                       # Cumulative time (in ticks) in various power states
system.cpu.dtb_walker_cache.blocked_cycles::no_mshrs            0                       # number of cycles access was blocked
system.cpu.dtb_walker_cache.blocked_cycles::no_targets            0                       # number of cycles access was blocked
system.cpu.dtb_walker_cache.blocked::no_mshrs            0                       # number of cycles access was blocked
system.cpu.dtb_walker_cache.blocked::no_targets            0                       # number of cycles access was blocked
system.cpu.dtb_walker_cache.avg_blocked_cycles::no_mshrs          nan                       # average number of cycles each access was blocked
system.cpu.dtb_walker_cache.avg_blocked_cycles::no_targets          nan                       # average number of cycles each access was blocked
system.cpu.dtb_walker_cache.replacements            0                       # number of replacements
system.cpu.dtb_walker_cache.tags.pwrStateResidencyTicks::UNDEFINED 359130840256000                       # Cumulative time (in ticks) in various power states
system.cpu.dtb_walker_cache.tags.tagsinuse            0                       # Cycle average of tags in use
system.cpu.dtb_walker_cache.tags.total_refs            0                       # Total number of references to valid blocks.
system.cpu.dtb_walker_cache.tags.sampled_refs            0                       # Sample count of references to valid blocks.
system.cpu.dtb_walker_cache.tags.avg_refs          nan                       # Average number of references to valid blocks.
system.cpu.dtb_walker_cache.tags.warmup_cycle            0                       # Cycle when the warmup percentage was hit.
system.cpu.dtb_walker_cache.tags.tag_accesses            0                       # Number of tag accesses
system.cpu.dtb_walker_cache.tags.data_accesses            0                       # Number of data accesses
system.cpu.dcache.pwrStateResidencyTicks::UNDEFINED 359130840256000                       # Cumulative time (in ticks) in various power states
system.cpu.dcache.demand_hits::.cpu.data            1                       # number of demand (read+write) hits
system.cpu.dcache.demand_hits::.switch_cpus.data     10738285                       # number of demand (read+write) hits
system.cpu.dcache.demand_hits::total         10738286                       # number of demand (read+write) hits
system.cpu.dcache.overall_hits::.cpu.data            1                       # number of overall hits
system.cpu.dcache.overall_hits::.switch_cpus.data     10738285                       # number of overall hits
system.cpu.dcache.overall_hits::total        10738286                       # number of overall hits
system.cpu.dcache.demand_misses::.cpu.data            3                       # number of demand (read+write) misses
system.cpu.dcache.demand_misses::.switch_cpus.data      3198699                       # number of demand (read+write) misses
system.cpu.dcache.demand_misses::total        3198702                       # number of demand (read+write) misses
system.cpu.dcache.overall_misses::.cpu.data            3                       # number of overall misses
system.cpu.dcache.overall_misses::.switch_cpus.data      3198699                       # number of overall misses
system.cpu.dcache.overall_misses::total       3198702                       # number of overall misses
system.cpu.dcache.demand_miss_latency::.switch_cpus.data 204403137412                       # number of demand (read+write) miss cycles
system.cpu.dcache.demand_miss_latency::total 204403137412                       # number of demand (read+write) miss cycles
system.cpu.dcache.overall_miss_latency::.switch_cpus.data 204403137412                       # number of overall miss cycles
system.cpu.dcache.overall_miss_latency::total 204403137412                       # number of overall miss cycles
system.cpu.dcache.demand_accesses::.cpu.data            4                       # number of demand (read+write) accesses
system.cpu.dcache.demand_accesses::.switch_cpus.data     13936984                       # number of demand (read+write) accesses
system.cpu.dcache.demand_accesses::total     13936988                       # number of demand (read+write) accesses
system.cpu.dcache.overall_accesses::.cpu.data            4                       # number of overall (read+write) accesses
system.cpu.dcache.overall_accesses::.switch_cpus.data     13936984                       # number of overall (read+write) accesses
system.cpu.dcache.overall_accesses::total     13936988                       # number of overall (read+write) accesses
system.cpu.dcache.demand_miss_rate::.cpu.data     0.750000                       # miss rate for demand accesses
system.cpu.dcache.demand_miss_rate::.switch_cpus.data     0.229512                       # miss rate for demand accesses
system.cpu.dcache.demand_miss_rate::total     0.229512                       # miss rate for demand accesses
system.cpu.dcache.overall_miss_rate::.cpu.data     0.750000                       # miss rate for overall accesses
system.cpu.dcache.overall_miss_rate::.switch_cpus.data     0.229512                       # miss rate for overall accesses
system.cpu.dcache.overall_miss_rate::total     0.229512                       # miss rate for overall accesses
system.cpu.dcache.demand_avg_miss_latency::.switch_cpus.data 63901.960582                       # average overall miss latency
system.cpu.dcache.demand_avg_miss_latency::total 63901.900650                       # average overall miss latency
system.cpu.dcache.overall_avg_miss_latency::.switch_cpus.data 63901.960582                       # average overall miss latency
system.cpu.dcache.overall_avg_miss_latency::total 63901.900650                       # average overall miss latency
system.cpu.dcache.blocked_cycles::no_mshrs      3893832                       # number of cycles access was blocked
system.cpu.dcache.blocked_cycles::no_targets            0                       # number of cycles access was blocked
system.cpu.dcache.blocked::no_mshrs            123127                       # number of cycles access was blocked
system.cpu.dcache.blocked::no_targets               0                       # number of cycles access was blocked
system.cpu.dcache.avg_blocked_cycles::no_mshrs    31.624518                       # average number of cycles each access was blocked
system.cpu.dcache.avg_blocked_cycles::no_targets          nan                       # average number of cycles each access was blocked
system.cpu.dcache.writebacks::.writebacks       168814                       # number of writebacks
system.cpu.dcache.writebacks::total            168814                       # number of writebacks
system.cpu.dcache.demand_mshr_hits::.switch_cpus.data      2364719                       # number of demand (read+write) MSHR hits
system.cpu.dcache.demand_mshr_hits::total      2364719                       # number of demand (read+write) MSHR hits
system.cpu.dcache.overall_mshr_hits::.switch_cpus.data      2364719                       # number of overall MSHR hits
system.cpu.dcache.overall_mshr_hits::total      2364719                       # number of overall MSHR hits
system.cpu.dcache.demand_mshr_misses::.switch_cpus.data       833980                       # number of demand (read+write) MSHR misses
system.cpu.dcache.demand_mshr_misses::total       833980                       # number of demand (read+write) MSHR misses
system.cpu.dcache.overall_mshr_misses::.switch_cpus.data       833980                       # number of overall MSHR misses
system.cpu.dcache.overall_mshr_misses::total       833980                       # number of overall MSHR misses
system.cpu.dcache.demand_mshr_miss_latency::.switch_cpus.data  56985979915                       # number of demand (read+write) MSHR miss cycles
system.cpu.dcache.demand_mshr_miss_latency::total  56985979915                       # number of demand (read+write) MSHR miss cycles
system.cpu.dcache.overall_mshr_miss_latency::.switch_cpus.data  56985979915                       # number of overall MSHR miss cycles
system.cpu.dcache.overall_mshr_miss_latency::total  56985979915                       # number of overall MSHR miss cycles
system.cpu.dcache.demand_mshr_miss_rate::.switch_cpus.data     0.059839                       # mshr miss rate for demand accesses
system.cpu.dcache.demand_mshr_miss_rate::total     0.059839                       # mshr miss rate for demand accesses
system.cpu.dcache.overall_mshr_miss_rate::.switch_cpus.data     0.059839                       # mshr miss rate for overall accesses
system.cpu.dcache.overall_mshr_miss_rate::total     0.059839                       # mshr miss rate for overall accesses
system.cpu.dcache.demand_avg_mshr_miss_latency::.switch_cpus.data 68330.151700                       # average overall mshr miss latency
system.cpu.dcache.demand_avg_mshr_miss_latency::total 68330.151700                       # average overall mshr miss latency
system.cpu.dcache.overall_avg_mshr_miss_latency::.switch_cpus.data 68330.151700                       # average overall mshr miss latency
system.cpu.dcache.overall_avg_mshr_miss_latency::total 68330.151700                       # average overall mshr miss latency
system.cpu.dcache.replacements                 832959                       # number of replacements
system.cpu.dcache.ReadReq_hits::.cpu.data            1                       # number of ReadReq hits
system.cpu.dcache.ReadReq_hits::.switch_cpus.data      9400434                       # number of ReadReq hits
system.cpu.dcache.ReadReq_hits::total         9400435                       # number of ReadReq hits
system.cpu.dcache.ReadReq_misses::.cpu.data            3                       # number of ReadReq misses
system.cpu.dcache.ReadReq_misses::.switch_cpus.data      3157277                       # number of ReadReq misses
system.cpu.dcache.ReadReq_misses::total       3157280                       # number of ReadReq misses
system.cpu.dcache.ReadReq_miss_latency::.switch_cpus.data 201430488000                       # number of ReadReq miss cycles
system.cpu.dcache.ReadReq_miss_latency::total 201430488000                       # number of ReadReq miss cycles
system.cpu.dcache.ReadReq_accesses::.cpu.data            4                       # number of ReadReq accesses(hits+misses)
system.cpu.dcache.ReadReq_accesses::.switch_cpus.data     12557711                       # number of ReadReq accesses(hits+misses)
system.cpu.dcache.ReadReq_accesses::total     12557715                       # number of ReadReq accesses(hits+misses)
system.cpu.dcache.ReadReq_miss_rate::.cpu.data     0.750000                       # miss rate for ReadReq accesses
system.cpu.dcache.ReadReq_miss_rate::.switch_cpus.data     0.251421                       # miss rate for ReadReq accesses
system.cpu.dcache.ReadReq_miss_rate::total     0.251422                       # miss rate for ReadReq accesses
system.cpu.dcache.ReadReq_avg_miss_latency::.switch_cpus.data 63798.801309                       # average ReadReq miss latency
system.cpu.dcache.ReadReq_avg_miss_latency::total 63798.740688                       # average ReadReq miss latency
system.cpu.dcache.ReadReq_mshr_hits::.switch_cpus.data      2364443                       # number of ReadReq MSHR hits
system.cpu.dcache.ReadReq_mshr_hits::total      2364443                       # number of ReadReq MSHR hits
system.cpu.dcache.ReadReq_mshr_misses::.switch_cpus.data       792834                       # number of ReadReq MSHR misses
system.cpu.dcache.ReadReq_mshr_misses::total       792834                       # number of ReadReq MSHR misses
system.cpu.dcache.ReadReq_mshr_miss_latency::.switch_cpus.data  54067945500                       # number of ReadReq MSHR miss cycles
system.cpu.dcache.ReadReq_mshr_miss_latency::total  54067945500                       # number of ReadReq MSHR miss cycles
system.cpu.dcache.ReadReq_mshr_miss_rate::.switch_cpus.data     0.063135                       # mshr miss rate for ReadReq accesses
system.cpu.dcache.ReadReq_mshr_miss_rate::total     0.063135                       # mshr miss rate for ReadReq accesses
system.cpu.dcache.ReadReq_avg_mshr_miss_latency::.switch_cpus.data 68195.795715                       # average ReadReq mshr miss latency
system.cpu.dcache.ReadReq_avg_mshr_miss_latency::total 68195.795715                       # average ReadReq mshr miss latency
system.cpu.dcache.WriteReq_hits::.switch_cpus.data      1337851                       # number of WriteReq hits
system.cpu.dcache.WriteReq_hits::total        1337851                       # number of WriteReq hits
system.cpu.dcache.WriteReq_misses::.switch_cpus.data        41422                       # number of WriteReq misses
system.cpu.dcache.WriteReq_misses::total        41422                       # number of WriteReq misses
system.cpu.dcache.WriteReq_miss_latency::.switch_cpus.data   2972649412                       # number of WriteReq miss cycles
system.cpu.dcache.WriteReq_miss_latency::total   2972649412                       # number of WriteReq miss cycles
system.cpu.dcache.WriteReq_accesses::.switch_cpus.data      1379273                       # number of WriteReq accesses(hits+misses)
system.cpu.dcache.WriteReq_accesses::total      1379273                       # number of WriteReq accesses(hits+misses)
system.cpu.dcache.WriteReq_miss_rate::.switch_cpus.data     0.030032                       # miss rate for WriteReq accesses
system.cpu.dcache.WriteReq_miss_rate::total     0.030032                       # miss rate for WriteReq accesses
system.cpu.dcache.WriteReq_avg_miss_latency::.switch_cpus.data 71764.989909                       # average WriteReq miss latency
system.cpu.dcache.WriteReq_avg_miss_latency::total 71764.989909                       # average WriteReq miss latency
system.cpu.dcache.WriteReq_mshr_hits::.switch_cpus.data          276                       # number of WriteReq MSHR hits
system.cpu.dcache.WriteReq_mshr_hits::total          276                       # number of WriteReq MSHR hits
system.cpu.dcache.WriteReq_mshr_misses::.switch_cpus.data        41146                       # number of WriteReq MSHR misses
system.cpu.dcache.WriteReq_mshr_misses::total        41146                       # number of WriteReq MSHR misses
system.cpu.dcache.WriteReq_mshr_miss_latency::.switch_cpus.data   2918034415                       # number of WriteReq MSHR miss cycles
system.cpu.dcache.WriteReq_mshr_miss_latency::total   2918034415                       # number of WriteReq MSHR miss cycles
system.cpu.dcache.WriteReq_mshr_miss_rate::.switch_cpus.data     0.029832                       # mshr miss rate for WriteReq accesses
system.cpu.dcache.WriteReq_mshr_miss_rate::total     0.029832                       # mshr miss rate for WriteReq accesses
system.cpu.dcache.WriteReq_avg_mshr_miss_latency::.switch_cpus.data 70919.030161                       # average WriteReq mshr miss latency
system.cpu.dcache.WriteReq_avg_mshr_miss_latency::total 70919.030161                       # average WriteReq mshr miss latency
system.cpu.dcache.tags.pwrStateResidencyTicks::UNDEFINED 359130840256000                       # Cumulative time (in ticks) in various power states
system.cpu.dcache.tags.tagsinuse             0.103516                       # Cycle average of tags in use
system.cpu.dcache.tags.total_refs            11572269                       # Total number of references to valid blocks.
system.cpu.dcache.tags.sampled_refs            833983                       # Sample count of references to valid blocks.
system.cpu.dcache.tags.avg_refs             13.875905                       # Average number of references to valid blocks.
system.cpu.dcache.tags.warmup_cycle      359094507845000                       # Cycle when the warmup percentage was hit.
system.cpu.dcache.tags.occ_blocks::.cpu.data     0.000002                       # Average occupied blocks per requestor
system.cpu.dcache.tags.occ_blocks::.switch_cpus.data     0.103514                       # Average occupied blocks per requestor
system.cpu.dcache.tags.occ_percent::.cpu.data     0.000000                       # Average percentage of cache occupancy
system.cpu.dcache.tags.occ_percent::.switch_cpus.data     0.000101                       # Average percentage of cache occupancy
system.cpu.dcache.tags.occ_percent::total     0.000101                       # Average percentage of cache occupancy
system.cpu.dcache.tags.occ_task_id_blocks::1024         1024                       # Occupied blocks per task id
system.cpu.dcache.tags.age_task_id_blocks_1024::0          240                       # Occupied blocks per task id
system.cpu.dcache.tags.age_task_id_blocks_1024::1          714                       # Occupied blocks per task id
system.cpu.dcache.tags.age_task_id_blocks_1024::2           70                       # Occupied blocks per task id
system.cpu.dcache.tags.occ_task_id_percent::1024            1                       # Percentage of cache occupancy per task id
system.cpu.dcache.tags.tag_accesses          28707959                       # Number of tag accesses
system.cpu.dcache.tags.data_accesses         28707959                       # Number of data accesses

---------- End Simulation Statistics   ----------
