
---------- Begin Simulation Statistics ----------
final_tick                               70892966153500                       # Number of ticks from beginning of simulation (restored from checkpoints and never reset)
host_inst_rate                                  53090                       # Simulator instruction rate (inst/s)
host_mem_usage                                 791892                       # Number of bytes of host memory used
host_op_rate                                    85095                       # Simulator op (including micro ops) rate (op/s)
host_seconds                                   188.36                       # Real time elapsed on the host
host_tick_rate                               14636286                       # Simulator tick rate (ticks/s)
sim_freq                                 1000000000000                       # Frequency of simulated ticks
sim_insts                                    10000010                       # Number of instructions simulated
sim_ops                                      16028373                       # Number of ops (including micro ops) simulated
sim_seconds                                  0.002757                       # Number of seconds simulated
sim_ticks                                  2756877250                       # Number of ticks simulated
system.cpu.committedInsts                          10                       # Number of instructions committed
system.cpu.committedOps                            14                       # Number of ops (including micro ops) committed
system.cpu.dtb.rdAccesses                           5                       # TLB accesses on read requests
system.cpu.dtb.rdMisses                             0                       # TLB misses on read requests
system.cpu.dtb.wrAccesses                           2                       # TLB accesses on write requests
system.cpu.dtb.wrMisses                             0                       # TLB misses on write requests
system.cpu.idle_fraction                            0                       # Percentage of idle cycles
system.cpu.itb.rdAccesses                           0                       # TLB accesses on read requests
system.cpu.itb.rdMisses                             0                       # TLB misses on read requests
system.cpu.itb.wrAccesses                          15                       # TLB accesses on write requests
system.cpu.itb.wrMisses                             0                       # TLB misses on write requests
system.cpu.not_idle_fraction                        1                       # Percentage of non-idle cycles
system.cpu.numCycles                               19                       # number of cpu cycles simulated
system.cpu.numWorkItemsCompleted                    0                       # number of work items this cpu completed
system.cpu.numWorkItemsStarted                      0                       # number of work items this cpu started
system.cpu.num_busy_cycles                         19                       # Number of busy cycles
system.cpu.num_cc_register_reads                   20                       # number of times the CC registers were read
system.cpu.num_cc_register_writes                   6                       # number of times the CC registers were written
system.cpu.num_conditional_control_insts            0                       # number of instructions that are conditional controls
system.cpu.num_fp_alu_accesses                      0                       # Number of float alu accesses
system.cpu.num_fp_insts                             0                       # number of float instructions
system.cpu.num_fp_register_reads                    0                       # number of times the floating registers were read
system.cpu.num_fp_register_writes                   0                       # number of times the floating registers were written
system.cpu.num_func_calls                           0                       # number of times a function call or return occured
system.cpu.num_idle_cycles                          0                       # Number of idle cycles
system.cpu.num_int_alu_accesses                    14                       # Number of integer alu accesses
system.cpu.num_int_insts                           14                       # number of integer instructions
system.cpu.num_int_register_reads                  41                       # number of times the integer registers were read
system.cpu.num_int_register_writes                 12                       # number of times the integer registers were written
system.cpu.num_load_insts                           5                       # Number of load instructions
system.cpu.num_mem_refs                             7                       # number of memory refs
system.cpu.num_store_insts                          2                       # Number of store instructions
system.cpu.num_vec_alu_accesses                     0                       # Number of vector alu accesses
system.cpu.num_vec_insts                            0                       # number of vector instructions
system.cpu.num_vec_register_reads                   0                       # number of times the vector registers were read
system.cpu.num_vec_register_writes                  0                       # number of times the vector registers were written
system.cpu.op_class::No_OpClass                     0      0.00%      0.00% # Class of executed instruction
system.cpu.op_class::IntAlu                         7     50.00%     50.00% # Class of executed instruction
system.cpu.op_class::IntMult                        0      0.00%     50.00% # Class of executed instruction
system.cpu.op_class::IntDiv                         0      0.00%     50.00% # Class of executed instruction
system.cpu.op_class::FloatAdd                       0      0.00%     50.00% # Class of executed instruction
system.cpu.op_class::FloatCmp                       0      0.00%     50.00% # Class of executed instruction
system.cpu.op_class::FloatCvt                       0      0.00%     50.00% # Class of executed instruction
system.cpu.op_class::FloatMult                      0      0.00%     50.00% # Class of executed instruction
system.cpu.op_class::FloatMultAcc                   0      0.00%     50.00% # Class of executed instruction
system.cpu.op_class::FloatDiv                       0      0.00%     50.00% # Class of executed instruction
system.cpu.op_class::FloatMisc                      0      0.00%     50.00% # Class of executed instruction
system.cpu.op_class::FloatSqrt                      0      0.00%     50.00% # Class of executed instruction
system.cpu.op_class::SimdAdd                        0      0.00%     50.00% # Class of executed instruction
system.cpu.op_class::SimdAddAcc                     0      0.00%     50.00% # Class of executed instruction
system.cpu.op_class::SimdAlu                        0      0.00%     50.00% # Class of executed instruction
system.cpu.op_class::SimdCmp                        0      0.00%     50.00% # Class of executed instruction
system.cpu.op_class::SimdCvt                        0      0.00%     50.00% # Class of executed instruction
system.cpu.op_class::SimdMisc                       0      0.00%     50.00% # Class of executed instruction
system.cpu.op_class::SimdMult                       0      0.00%     50.00% # Class of executed instruction
system.cpu.op_class::SimdMultAcc                    0      0.00%     50.00% # Class of executed instruction
system.cpu.op_class::SimdShift                      0      0.00%     50.00% # Class of executed instruction
system.cpu.op_class::SimdShiftAcc                   0      0.00%     50.00% # Class of executed instruction
system.cpu.op_class::SimdDiv                        0      0.00%     50.00% # Class of executed instruction
system.cpu.op_class::SimdSqrt                       0      0.00%     50.00% # Class of executed instruction
system.cpu.op_class::SimdFloatAdd                   0      0.00%     50.00% # Class of executed instruction
system.cpu.op_class::SimdFloatAlu                   0      0.00%     50.00% # Class of executed instruction
system.cpu.op_class::SimdFloatCmp                   0      0.00%     50.00% # Class of executed instruction
system.cpu.op_class::SimdFloatCvt                   0      0.00%     50.00% # Class of executed instruction
system.cpu.op_class::SimdFloatDiv                   0      0.00%     50.00% # Class of executed instruction
system.cpu.op_class::SimdFloatMisc                  0      0.00%     50.00% # Class of executed instruction
system.cpu.op_class::SimdFloatMult                  0      0.00%     50.00% # Class of executed instruction
system.cpu.op_class::SimdFloatMultAcc               0      0.00%     50.00% # Class of executed instruction
system.cpu.op_class::SimdFloatSqrt                  0      0.00%     50.00% # Class of executed instruction
system.cpu.op_class::SimdReduceAdd                  0      0.00%     50.00% # Class of executed instruction
system.cpu.op_class::SimdReduceAlu                  0      0.00%     50.00% # Class of executed instruction
system.cpu.op_class::SimdReduceCmp                  0      0.00%     50.00% # Class of executed instruction
system.cpu.op_class::SimdFloatReduceAdd             0      0.00%     50.00% # Class of executed instruction
system.cpu.op_class::SimdFloatReduceCmp             0      0.00%     50.00% # Class of executed instruction
system.cpu.op_class::SimdAes                        0      0.00%     50.00% # Class of executed instruction
system.cpu.op_class::SimdAesMix                     0      0.00%     50.00% # Class of executed instruction
system.cpu.op_class::SimdSha1Hash                   0      0.00%     50.00% # Class of executed instruction
system.cpu.op_class::SimdSha1Hash2                  0      0.00%     50.00% # Class of executed instruction
system.cpu.op_class::SimdSha256Hash                 0      0.00%     50.00% # Class of executed instruction
system.cpu.op_class::SimdSha256Hash2                0      0.00%     50.00% # Class of executed instruction
system.cpu.op_class::SimdShaSigma2                  0      0.00%     50.00% # Class of executed instruction
system.cpu.op_class::SimdShaSigma3                  0      0.00%     50.00% # Class of executed instruction
system.cpu.op_class::SimdPredAlu                    0      0.00%     50.00% # Class of executed instruction
system.cpu.op_class::MemRead                        5     35.71%     85.71% # Class of executed instruction
system.cpu.op_class::MemWrite                       2     14.29%    100.00% # Class of executed instruction
system.cpu.op_class::FloatMemRead                   0      0.00%    100.00% # Class of executed instruction
system.cpu.op_class::FloatMemWrite                  0      0.00%    100.00% # Class of executed instruction
system.cpu.op_class::IprAccess                      0      0.00%    100.00% # Class of executed instruction
system.cpu.op_class::InstPrefetch                   0      0.00%    100.00% # Class of executed instruction
system.cpu.op_class::total                         14                       # Class of executed instruction
system.cpu.workload.numSyscalls                     0                       # Number of system calls
system.membus.snoop_filter.hit_multi_requests            0                       # Number of requests hitting in the snoop filter with multiple (>1) holders of the requested data.
system.membus.snoop_filter.hit_multi_snoops            0                       # Number of snoops hitting in the snoop filter with multiple (>1) holders of the requested data.
system.membus.snoop_filter.hit_single_requests         3300                       # Number of requests hitting in the snoop filter with a single holder of the requested data.
system.membus.snoop_filter.hit_single_snoops            0                       # Number of snoops hitting in the snoop filter with a single holder of the requested data.
system.membus.snoop_filter.tot_requests          8810                       # Total number of requests made to the snoop filter.
system.membus.snoop_filter.tot_snoops               0                       # Total number of snoops made to the snoop filter.
system.switch_cpus.branchPred.BTBCorrect            0                       # Number of correct BTB predictions (this stat may not work properly.
system.switch_cpus.branchPred.BTBHitPct      0.000000                       # BTB Hit Percentage
system.switch_cpus.branchPred.BTBHits               0                       # Number of BTB hits
system.switch_cpus.branchPred.BTBLookups       610944                       # Number of BTB lookups
system.switch_cpus.branchPred.RASInCorrect            1                       # Number of incorrect RAS predictions.
system.switch_cpus.branchPred.condIncorrect        18995                       # Number of conditional branches incorrect
system.switch_cpus.branchPred.condPredicted       858924                       # Number of conditional branches predicted
system.switch_cpus.branchPred.indirectHits       494588                       # Number of indirect target hits.
system.switch_cpus.branchPred.indirectLookups       610944                       # Number of indirect predictor lookups.
system.switch_cpus.branchPred.indirectMisses       116356                       # Number of indirect misses.
system.switch_cpus.branchPred.lookups          937935                       # Number of BP lookups
system.switch_cpus.branchPred.usedRAS           39116                       # Number of times the RAS was used to get a target.
system.switch_cpus.branchPredindirectMispredicted         2285                       # Number of mispredicted indirect branches.
system.switch_cpus.cc_regfile_reads          14093276                       # number of cc regfile reads
system.switch_cpus.cc_regfile_writes          7119026                       # number of cc regfile writes
system.switch_cpus.commit.amos                      0                       # Number of atomic instructions committed
system.switch_cpus.commit.branchMispredicts        19022                       # The number of times a branch was mispredicted
system.switch_cpus.commit.branches             714318                       # Number of branches committed
system.switch_cpus.commit.bw_lim_events       1273550                       # number cycles where commit BW limit reached
system.switch_cpus.commit.commitSquashedInsts      1192785                       # The number of squashed insts skipped by commit
system.switch_cpus.commit.committedInsts     10000000                       # Number of instructions committed
system.switch_cpus.commit.committedOps       16028359                       # Number of ops (including micro ops) committed
system.switch_cpus.commit.committed_per_cycle::samples      5344965                       # Number of insts commited each cycle
system.switch_cpus.commit.committed_per_cycle::mean     2.998777                       # Number of insts commited each cycle
system.switch_cpus.commit.committed_per_cycle::stdev     3.136349                       # Number of insts commited each cycle
system.switch_cpus.commit.committed_per_cycle::underflows            0      0.00%      0.00% # Number of insts commited each cycle
system.switch_cpus.commit.committed_per_cycle::0      1107060     20.71%     20.71% # Number of insts commited each cycle
system.switch_cpus.commit.committed_per_cycle::1      1874552     35.07%     55.78% # Number of insts commited each cycle
system.switch_cpus.commit.committed_per_cycle::2       399742      7.48%     63.26% # Number of insts commited each cycle
system.switch_cpus.commit.committed_per_cycle::3       194618      3.64%     66.90% # Number of insts commited each cycle
system.switch_cpus.commit.committed_per_cycle::4       136753      2.56%     69.46% # Number of insts commited each cycle
system.switch_cpus.commit.committed_per_cycle::5       165564      3.10%     72.56% # Number of insts commited each cycle
system.switch_cpus.commit.committed_per_cycle::6       144645      2.71%     75.27% # Number of insts commited each cycle
system.switch_cpus.commit.committed_per_cycle::7        48481      0.91%     76.17% # Number of insts commited each cycle
system.switch_cpus.commit.committed_per_cycle::8      1273550     23.83%    100.00% # Number of insts commited each cycle
system.switch_cpus.commit.committed_per_cycle::overflows            0      0.00%    100.00% # Number of insts commited each cycle
system.switch_cpus.commit.committed_per_cycle::min_value            0                       # Number of insts commited each cycle
system.switch_cpus.commit.committed_per_cycle::max_value            8                       # Number of insts commited each cycle
system.switch_cpus.commit.committed_per_cycle::total      5344965                       # Number of insts commited each cycle
system.switch_cpus.commit.fp_insts            1417974                       # Number of committed floating point instructions.
system.switch_cpus.commit.function_calls        31902                       # Number of function calls committed.
system.switch_cpus.commit.int_insts          14812880                       # Number of committed integer instructions.
system.switch_cpus.commit.loads               3609577                       # Number of loads committed
system.switch_cpus.commit.membars                   0                       # Number of memory barriers committed
system.switch_cpus.commit.op_class_0::No_OpClass        95071      0.59%      0.59% # Class of committed instruction
system.switch_cpus.commit.op_class_0::IntAlu      9822899     61.28%     61.88% # Class of committed instruction
system.switch_cpus.commit.op_class_0::IntMult        84240      0.53%     62.40% # Class of committed instruction
system.switch_cpus.commit.op_class_0::IntDiv            0      0.00%     62.40% # Class of committed instruction
system.switch_cpus.commit.op_class_0::FloatAdd        32039      0.20%     62.60% # Class of committed instruction
system.switch_cpus.commit.op_class_0::FloatCmp            0      0.00%     62.60% # Class of committed instruction
system.switch_cpus.commit.op_class_0::FloatCvt            0      0.00%     62.60% # Class of committed instruction
system.switch_cpus.commit.op_class_0::FloatMult            0      0.00%     62.60% # Class of committed instruction
system.switch_cpus.commit.op_class_0::FloatMultAcc            0      0.00%     62.60% # Class of committed instruction
system.switch_cpus.commit.op_class_0::FloatDiv            0      0.00%     62.60% # Class of committed instruction
system.switch_cpus.commit.op_class_0::FloatMisc            0      0.00%     62.60% # Class of committed instruction
system.switch_cpus.commit.op_class_0::FloatSqrt            0      0.00%     62.60% # Class of committed instruction
system.switch_cpus.commit.op_class_0::SimdAdd        21142      0.13%     62.73% # Class of committed instruction
system.switch_cpus.commit.op_class_0::SimdAddAcc            0      0.00%     62.73% # Class of committed instruction
system.switch_cpus.commit.op_class_0::SimdAlu       327752      2.04%     64.78% # Class of committed instruction
system.switch_cpus.commit.op_class_0::SimdCmp            0      0.00%     64.78% # Class of committed instruction
system.switch_cpus.commit.op_class_0::SimdCvt       126470      0.79%     65.57% # Class of committed instruction
system.switch_cpus.commit.op_class_0::SimdMisc       158042      0.99%     66.55% # Class of committed instruction
system.switch_cpus.commit.op_class_0::SimdMult            0      0.00%     66.55% # Class of committed instruction
system.switch_cpus.commit.op_class_0::SimdMultAcc            0      0.00%     66.55% # Class of committed instruction
system.switch_cpus.commit.op_class_0::SimdShift        63426      0.40%     66.95% # Class of committed instruction
system.switch_cpus.commit.op_class_0::SimdShiftAcc            0      0.00%     66.95% # Class of committed instruction
system.switch_cpus.commit.op_class_0::SimdDiv            0      0.00%     66.95% # Class of committed instruction
system.switch_cpus.commit.op_class_0::SimdSqrt            0      0.00%     66.95% # Class of committed instruction
system.switch_cpus.commit.op_class_0::SimdFloatAdd       107090      0.67%     67.62% # Class of committed instruction
system.switch_cpus.commit.op_class_0::SimdFloatAlu            0      0.00%     67.62% # Class of committed instruction
system.switch_cpus.commit.op_class_0::SimdFloatCmp           27      0.00%     67.62% # Class of committed instruction
system.switch_cpus.commit.op_class_0::SimdFloatCvt       149566      0.93%     68.55% # Class of committed instruction
system.switch_cpus.commit.op_class_0::SimdFloatDiv        21087      0.13%     68.68% # Class of committed instruction
system.switch_cpus.commit.op_class_0::SimdFloatMisc            0      0.00%     68.68% # Class of committed instruction
system.switch_cpus.commit.op_class_0::SimdFloatMult        10842      0.07%     68.75% # Class of committed instruction
system.switch_cpus.commit.op_class_0::SimdFloatMultAcc            0      0.00%     68.75% # Class of committed instruction
system.switch_cpus.commit.op_class_0::SimdFloatSqrt            0      0.00%     68.75% # Class of committed instruction
system.switch_cpus.commit.op_class_0::SimdReduceAdd            0      0.00%     68.75% # Class of committed instruction
system.switch_cpus.commit.op_class_0::SimdReduceAlu            0      0.00%     68.75% # Class of committed instruction
system.switch_cpus.commit.op_class_0::SimdReduceCmp            0      0.00%     68.75% # Class of committed instruction
system.switch_cpus.commit.op_class_0::SimdFloatReduceAdd            0      0.00%     68.75% # Class of committed instruction
system.switch_cpus.commit.op_class_0::SimdFloatReduceCmp            0      0.00%     68.75% # Class of committed instruction
system.switch_cpus.commit.op_class_0::SimdAes            0      0.00%     68.75% # Class of committed instruction
system.switch_cpus.commit.op_class_0::SimdAesMix            0      0.00%     68.75% # Class of committed instruction
system.switch_cpus.commit.op_class_0::SimdSha1Hash            0      0.00%     68.75% # Class of committed instruction
system.switch_cpus.commit.op_class_0::SimdSha1Hash2            0      0.00%     68.75% # Class of committed instruction
system.switch_cpus.commit.op_class_0::SimdSha256Hash            0      0.00%     68.75% # Class of committed instruction
system.switch_cpus.commit.op_class_0::SimdSha256Hash2            0      0.00%     68.75% # Class of committed instruction
system.switch_cpus.commit.op_class_0::SimdShaSigma2            0      0.00%     68.75% # Class of committed instruction
system.switch_cpus.commit.op_class_0::SimdShaSigma3            0      0.00%     68.75% # Class of committed instruction
system.switch_cpus.commit.op_class_0::SimdPredAlu            0      0.00%     68.75% # Class of committed instruction
system.switch_cpus.commit.op_class_0::MemRead      3386158     21.13%     89.88% # Class of committed instruction
system.switch_cpus.commit.op_class_0::MemWrite      1398812      8.73%     98.60% # Class of committed instruction
system.switch_cpus.commit.op_class_0::FloatMemRead       223419      1.39%    100.00% # Class of committed instruction
system.switch_cpus.commit.op_class_0::FloatMemWrite          277      0.00%    100.00% # Class of committed instruction
system.switch_cpus.commit.op_class_0::IprAccess            0      0.00%    100.00% # Class of committed instruction
system.switch_cpus.commit.op_class_0::InstPrefetch            0      0.00%    100.00% # Class of committed instruction
system.switch_cpus.commit.op_class_0::total     16028359                       # Class of committed instruction
system.switch_cpus.commit.refs                5008666                       # Number of memory references committed
system.switch_cpus.commit.swp_count                 0                       # Number of s/w prefetches committed
system.switch_cpus.commit.vec_insts                 0                       # Number of committed Vector instructions.
system.switch_cpus.committedInsts            10000000                       # Number of Instructions Simulated
system.switch_cpus.committedOps              16028359                       # Number of Ops (including micro ops) Simulated
system.switch_cpus.cpi                       0.551373                       # CPI: Cycles Per Instruction
system.switch_cpus.cpi_total                 0.551373                       # CPI: Total CPI of All Threads
system.switch_cpus.decode.BlockedCycles       2623310                       # Number of cycles decode is blocked
system.switch_cpus.decode.DecodedInsts       17554063                       # Number of instructions handled by decode
system.switch_cpus.decode.IdleCycles           552662                       # Number of cycles decode is idle
system.switch_cpus.decode.RunCycles           1518396                       # Number of cycles decode is running
system.switch_cpus.decode.SquashCycles          19248                       # Number of cycles decode is squashing
system.switch_cpus.decode.UnblockCycles        790919                       # Number of cycles decode is unblocking
system.switch_cpus.dtb.rdAccesses             3689133                       # TLB accesses on read requests
system.switch_cpus.dtb.rdMisses                    72                       # TLB misses on read requests
system.switch_cpus.dtb.wrAccesses             1409581                       # TLB accesses on write requests
system.switch_cpus.dtb.wrMisses                    97                       # TLB misses on write requests
system.switch_cpus.fetch.Branches              937935                       # Number of branches that fetch encountered
system.switch_cpus.fetch.CacheLines            844298                       # Number of cache lines fetched
system.switch_cpus.fetch.Cycles               4628345                       # Number of cycles fetch has run and was not squashing or blocked
system.switch_cpus.fetch.IcacheSquashes          3290                       # Number of outstanding Icache misses that were squashed
system.switch_cpus.fetch.Insts               10915366                       # Number of instructions fetch has processed
system.switch_cpus.fetch.MiscStallCycles           27                       # Number of cycles fetch has spent waiting on interrupts, or bad addresses, or out of MSHRs
system.switch_cpus.fetch.PendingTrapStallCycles          164                       # Number of stall cycles due to pending traps
system.switch_cpus.fetch.SquashCycles           38496                       # Number of cycles fetch has spent squashing
system.switch_cpus.fetch.branchRate          0.170109                       # Number of branch fetches per cycle
system.switch_cpus.fetch.icacheStallCycles       856757                       # Number of cycles fetch is stalled on an Icache miss
system.switch_cpus.fetch.predictedBranches       533704                       # Number of branches that fetch has predicted taken
system.switch_cpus.fetch.rate                1.979669                       # Number of inst fetches per cycle
system.switch_cpus.fetch.rateDist::samples      5504541                       # Number of instructions fetched each cycle (Total)
system.switch_cpus.fetch.rateDist::mean      3.230053                       # Number of instructions fetched each cycle (Total)
system.switch_cpus.fetch.rateDist::stdev     3.542696                       # Number of instructions fetched each cycle (Total)
system.switch_cpus.fetch.rateDist::underflows            0      0.00%      0.00% # Number of instructions fetched each cycle (Total)
system.switch_cpus.fetch.rateDist::0          2712877     49.28%     49.28% # Number of instructions fetched each cycle (Total)
system.switch_cpus.fetch.rateDist::1           135989      2.47%     51.75% # Number of instructions fetched each cycle (Total)
system.switch_cpus.fetch.rateDist::2            99976      1.82%     53.57% # Number of instructions fetched each cycle (Total)
system.switch_cpus.fetch.rateDist::3           147155      2.67%     56.24% # Number of instructions fetched each cycle (Total)
system.switch_cpus.fetch.rateDist::4           176782      3.21%     59.46% # Number of instructions fetched each cycle (Total)
system.switch_cpus.fetch.rateDist::5           338859      6.16%     65.61% # Number of instructions fetched each cycle (Total)
system.switch_cpus.fetch.rateDist::6           170671      3.10%     68.71% # Number of instructions fetched each cycle (Total)
system.switch_cpus.fetch.rateDist::7           200752      3.65%     72.36% # Number of instructions fetched each cycle (Total)
system.switch_cpus.fetch.rateDist::8          1521480     27.64%    100.00% # Number of instructions fetched each cycle (Total)
system.switch_cpus.fetch.rateDist::overflows            0      0.00%    100.00% # Number of instructions fetched each cycle (Total)
system.switch_cpus.fetch.rateDist::min_value            0                       # Number of instructions fetched each cycle (Total)
system.switch_cpus.fetch.rateDist::max_value            8                       # Number of instructions fetched each cycle (Total)
system.switch_cpus.fetch.rateDist::total      5504541                       # Number of instructions fetched each cycle (Total)
system.switch_cpus.fp_regfile_reads           2735038                       # number of floating regfile reads
system.switch_cpus.fp_regfile_writes          1362449                       # number of floating regfile writes
system.switch_cpus.idleCycles                    9193                       # Total number of cycles that the CPU has spent unscheduled due to idling
system.switch_cpus.iew.branchMispredicts        32737                       # Number of branch mispredicts detected at execute
system.switch_cpus.iew.exec_branches           776550                       # Number of branches executed
system.switch_cpus.iew.exec_nop                     0                       # number of nop insts executed
system.switch_cpus.iew.exec_rate             3.033916                       # Inst execution rate
system.switch_cpus.iew.exec_refs              5093274                       # number of memory reference insts executed
system.switch_cpus.iew.exec_stores            1409581                       # Number of stores executed
system.switch_cpus.iew.exec_swp                     0                       # number of swp insts executed
system.switch_cpus.iew.iewBlockCycles          143643                       # Number of cycles IEW is blocking
system.switch_cpus.iew.iewDispLoadInsts       3715086                       # Number of dispatched load instructions
system.switch_cpus.iew.iewDispNonSpecInsts            5                       # Number of dispatched non-speculative instructions
system.switch_cpus.iew.iewDispSquashedInsts          420                       # Number of squashed instructions skipped by dispatch
system.switch_cpus.iew.iewDispStoreInsts      1423838                       # Number of dispatched store instructions
system.switch_cpus.iew.iewDispatchedInsts     17221165                       # Number of instructions dispatched to IQ
system.switch_cpus.iew.iewExecLoadInsts       3683693                       # Number of load instructions executed
system.switch_cpus.iew.iewExecSquashedInsts        30344                       # Number of squashed instructions skipped in execute
system.switch_cpus.iew.iewExecutedInsts      16728205                       # Number of executed instructions
system.switch_cpus.iew.iewIQFullEvents            154                       # Number of times the IQ has become full, causing a stall
system.switch_cpus.iew.iewIdleCycles                0                       # Number of cycles IEW is idle
system.switch_cpus.iew.iewLSQFullEvents        100822                       # Number of times the LSQ has become full, causing a stall
system.switch_cpus.iew.iewSquashCycles          19248                       # Number of cycles IEW is squashing
system.switch_cpus.iew.iewUnblockCycles        102115                       # Number of cycles IEW is unblocking
system.switch_cpus.iew.lsq.thread0.blockedLoads            0                       # Number of blocked loads due to partial load-store forwarding
system.switch_cpus.iew.lsq.thread0.cacheBlocked          185                       # Number of times an access to memory failed due to the cache being blocked
system.switch_cpus.iew.lsq.thread0.forwLoads       391521                       # Number of loads that had data forwarded from stores
system.switch_cpus.iew.lsq.thread0.ignoredResponses           48                       # Number of memory responses ignored because the instruction is squashed
system.switch_cpus.iew.lsq.thread0.invAddrLoads            0                       # Number of loads ignored due to an invalid address
system.switch_cpus.iew.lsq.thread0.invAddrSwpfs            0                       # Number of software prefetches ignored due to an invalid address
system.switch_cpus.iew.lsq.thread0.memOrderViolation          261                       # Number of memory ordering violations
system.switch_cpus.iew.lsq.thread0.rescheduledLoads            0                       # Number of loads that were rescheduled
system.switch_cpus.iew.lsq.thread0.squashedLoads       105497                       # Number of loads squashed
system.switch_cpus.iew.lsq.thread0.squashedStores        24739                       # Number of stores squashed
system.switch_cpus.iew.memOrderViolationEvents          261                       # Number of memory order violations
system.switch_cpus.iew.predictedNotTakenIncorrect        28159                       # Number of branches that were predicted not taken incorrectly
system.switch_cpus.iew.predictedTakenIncorrect         4578                       # Number of branches that were predicted taken incorrectly
system.switch_cpus.iew.wb_consumers          26952550                       # num instructions consuming a value
system.switch_cpus.iew.wb_count              16712451                       # cumulative count of insts written-back
system.switch_cpus.iew.wb_fanout             0.497979                       # average fanout of values written-back
system.switch_cpus.iew.wb_producers          13421806                       # num instructions producing a value
system.switch_cpus.iew.wb_rate               3.031059                       # insts written-back per cycle
system.switch_cpus.iew.wb_sent               16719021                       # cumulative count of insts sent to commit
system.switch_cpus.int_regfile_reads         28986904                       # number of integer regfile reads
system.switch_cpus.int_regfile_writes        13061495                       # number of integer regfile writes
system.switch_cpus.ipc                       1.813653                       # IPC: Instructions Per Cycle
system.switch_cpus.ipc_total                 1.813653                       # IPC: Total IPC of All Threads
system.switch_cpus.iq.FU_type_0::No_OpClass        99861      0.60%      0.60% # Type of FU issued
system.switch_cpus.iq.FU_type_0::IntAlu      10370924     61.88%     62.48% # Type of FU issued
system.switch_cpus.iq.FU_type_0::IntMult        85898      0.51%     62.99% # Type of FU issued
system.switch_cpus.iq.FU_type_0::IntDiv             0      0.00%     62.99% # Type of FU issued
system.switch_cpus.iq.FU_type_0::FloatAdd        34557      0.21%     63.20% # Type of FU issued
system.switch_cpus.iq.FU_type_0::FloatCmp            0      0.00%     63.20% # Type of FU issued
system.switch_cpus.iq.FU_type_0::FloatCvt            0      0.00%     63.20% # Type of FU issued
system.switch_cpus.iq.FU_type_0::FloatMult            0      0.00%     63.20% # Type of FU issued
system.switch_cpus.iq.FU_type_0::FloatMultAcc            0      0.00%     63.20% # Type of FU issued
system.switch_cpus.iq.FU_type_0::FloatDiv            0      0.00%     63.20% # Type of FU issued
system.switch_cpus.iq.FU_type_0::FloatMisc            0      0.00%     63.20% # Type of FU issued
system.switch_cpus.iq.FU_type_0::FloatSqrt            0      0.00%     63.20% # Type of FU issued
system.switch_cpus.iq.FU_type_0::SimdAdd        21142      0.13%     63.33% # Type of FU issued
system.switch_cpus.iq.FU_type_0::SimdAddAcc            0      0.00%     63.33% # Type of FU issued
system.switch_cpus.iq.FU_type_0::SimdAlu       341376      2.04%     65.36% # Type of FU issued
system.switch_cpus.iq.FU_type_0::SimdCmp            0      0.00%     65.36% # Type of FU issued
system.switch_cpus.iq.FU_type_0::SimdCvt       128743      0.77%     66.13% # Type of FU issued
system.switch_cpus.iq.FU_type_0::SimdMisc       159967      0.95%     67.08% # Type of FU issued
system.switch_cpus.iq.FU_type_0::SimdMult            0      0.00%     67.08% # Type of FU issued
system.switch_cpus.iq.FU_type_0::SimdMultAcc            0      0.00%     67.08% # Type of FU issued
system.switch_cpus.iq.FU_type_0::SimdShift        63476      0.38%     67.46% # Type of FU issued
system.switch_cpus.iq.FU_type_0::SimdShiftAcc            0      0.00%     67.46% # Type of FU issued
system.switch_cpus.iq.FU_type_0::SimdDiv            0      0.00%     67.46% # Type of FU issued
system.switch_cpus.iq.FU_type_0::SimdSqrt            0      0.00%     67.46% # Type of FU issued
system.switch_cpus.iq.FU_type_0::SimdFloatAdd       138734      0.83%     68.29% # Type of FU issued
system.switch_cpus.iq.FU_type_0::SimdFloatAlu            0      0.00%     68.29% # Type of FU issued
system.switch_cpus.iq.FU_type_0::SimdFloatCmp           50      0.00%     68.29% # Type of FU issued
system.switch_cpus.iq.FU_type_0::SimdFloatCvt       175600      1.05%     69.34% # Type of FU issued
system.switch_cpus.iq.FU_type_0::SimdFloatDiv        23026      0.14%     69.48% # Type of FU issued
system.switch_cpus.iq.FU_type_0::SimdFloatMisc            0      0.00%     69.48% # Type of FU issued
system.switch_cpus.iq.FU_type_0::SimdFloatMult        12814      0.08%     69.55% # Type of FU issued
system.switch_cpus.iq.FU_type_0::SimdFloatMultAcc            0      0.00%     69.55% # Type of FU issued
system.switch_cpus.iq.FU_type_0::SimdFloatSqrt            0      0.00%     69.55% # Type of FU issued
system.switch_cpus.iq.FU_type_0::SimdReduceAdd            0      0.00%     69.55% # Type of FU issued
system.switch_cpus.iq.FU_type_0::SimdReduceAlu            0      0.00%     69.55% # Type of FU issued
system.switch_cpus.iq.FU_type_0::SimdReduceCmp            0      0.00%     69.55% # Type of FU issued
system.switch_cpus.iq.FU_type_0::SimdFloatReduceAdd            0      0.00%     69.55% # Type of FU issued
system.switch_cpus.iq.FU_type_0::SimdFloatReduceCmp            0      0.00%     69.55% # Type of FU issued
system.switch_cpus.iq.FU_type_0::SimdAes            0      0.00%     69.55% # Type of FU issued
system.switch_cpus.iq.FU_type_0::SimdAesMix            0      0.00%     69.55% # Type of FU issued
system.switch_cpus.iq.FU_type_0::SimdSha1Hash            0      0.00%     69.55% # Type of FU issued
system.switch_cpus.iq.FU_type_0::SimdSha1Hash2            0      0.00%     69.55% # Type of FU issued
system.switch_cpus.iq.FU_type_0::SimdSha256Hash            0      0.00%     69.55% # Type of FU issued
system.switch_cpus.iq.FU_type_0::SimdSha256Hash2            0      0.00%     69.55% # Type of FU issued
system.switch_cpus.iq.FU_type_0::SimdShaSigma2            0      0.00%     69.55% # Type of FU issued
system.switch_cpus.iq.FU_type_0::SimdShaSigma3            0      0.00%     69.55% # Type of FU issued
system.switch_cpus.iq.FU_type_0::SimdPredAlu            0      0.00%     69.55% # Type of FU issued
system.switch_cpus.iq.FU_type_0::MemRead      3412788     20.36%     89.92% # Type of FU issued
system.switch_cpus.iq.FU_type_0::MemWrite      1410705      8.42%     98.34% # Type of FU issued
system.switch_cpus.iq.FU_type_0::FloatMemRead       278489      1.66%    100.00% # Type of FU issued
system.switch_cpus.iq.FU_type_0::FloatMemWrite          400      0.00%    100.00% # Type of FU issued
system.switch_cpus.iq.FU_type_0::IprAccess            0      0.00%    100.00% # Type of FU issued
system.switch_cpus.iq.FU_type_0::InstPrefetch            0      0.00%    100.00% # Type of FU issued
system.switch_cpus.iq.FU_type_0::total       16758550                       # Type of FU issued
system.switch_cpus.iq.fp_alu_accesses         1575053                       # Number of floating point alu accesses
system.switch_cpus.iq.fp_inst_queue_reads      3132155                       # Number of floating instruction queue reads
system.switch_cpus.iq.fp_inst_queue_wakeup_accesses      1540019                       # Number of floating instruction queue wakeup accesses
system.switch_cpus.iq.fp_inst_queue_writes      1887180                       # Number of floating instruction queue writes
system.switch_cpus.iq.fu_busy_cnt              185932                       # FU busy when requested
system.switch_cpus.iq.fu_busy_rate           0.011095                       # FU busy rate (busy events/executed inst)
system.switch_cpus.iq.fu_full::No_OpClass            0      0.00%      0.00% # attempts to use FU when none available
system.switch_cpus.iq.fu_full::IntAlu          112946     60.75%     60.75% # attempts to use FU when none available
system.switch_cpus.iq.fu_full::IntMult              0      0.00%     60.75% # attempts to use FU when none available
system.switch_cpus.iq.fu_full::IntDiv               0      0.00%     60.75% # attempts to use FU when none available
system.switch_cpus.iq.fu_full::FloatAdd             0      0.00%     60.75% # attempts to use FU when none available
system.switch_cpus.iq.fu_full::FloatCmp             0      0.00%     60.75% # attempts to use FU when none available
system.switch_cpus.iq.fu_full::FloatCvt             0      0.00%     60.75% # attempts to use FU when none available
system.switch_cpus.iq.fu_full::FloatMult            0      0.00%     60.75% # attempts to use FU when none available
system.switch_cpus.iq.fu_full::FloatMultAcc            0      0.00%     60.75% # attempts to use FU when none available
system.switch_cpus.iq.fu_full::FloatDiv             0      0.00%     60.75% # attempts to use FU when none available
system.switch_cpus.iq.fu_full::FloatMisc            0      0.00%     60.75% # attempts to use FU when none available
system.switch_cpus.iq.fu_full::FloatSqrt            0      0.00%     60.75% # attempts to use FU when none available
system.switch_cpus.iq.fu_full::SimdAdd              0      0.00%     60.75% # attempts to use FU when none available
system.switch_cpus.iq.fu_full::SimdAddAcc            0      0.00%     60.75% # attempts to use FU when none available
system.switch_cpus.iq.fu_full::SimdAlu             67      0.04%     60.78% # attempts to use FU when none available
system.switch_cpus.iq.fu_full::SimdCmp              0      0.00%     60.78% # attempts to use FU when none available
system.switch_cpus.iq.fu_full::SimdCvt           3392      1.82%     62.61% # attempts to use FU when none available
system.switch_cpus.iq.fu_full::SimdMisc            29      0.02%     62.62% # attempts to use FU when none available
system.switch_cpus.iq.fu_full::SimdMult             0      0.00%     62.62% # attempts to use FU when none available
system.switch_cpus.iq.fu_full::SimdMultAcc            0      0.00%     62.62% # attempts to use FU when none available
system.switch_cpus.iq.fu_full::SimdShift            0      0.00%     62.62% # attempts to use FU when none available
system.switch_cpus.iq.fu_full::SimdShiftAcc            0      0.00%     62.62% # attempts to use FU when none available
system.switch_cpus.iq.fu_full::SimdDiv              0      0.00%     62.62% # attempts to use FU when none available
system.switch_cpus.iq.fu_full::SimdSqrt             0      0.00%     62.62% # attempts to use FU when none available
system.switch_cpus.iq.fu_full::SimdFloatAdd         2736      1.47%     64.09% # attempts to use FU when none available
system.switch_cpus.iq.fu_full::SimdFloatAlu            0      0.00%     64.09% # attempts to use FU when none available
system.switch_cpus.iq.fu_full::SimdFloatCmp            0      0.00%     64.09% # attempts to use FU when none available
system.switch_cpus.iq.fu_full::SimdFloatCvt         9925      5.34%     69.43% # attempts to use FU when none available
system.switch_cpus.iq.fu_full::SimdFloatDiv            0      0.00%     69.43% # attempts to use FU when none available
system.switch_cpus.iq.fu_full::SimdFloatMisc            0      0.00%     69.43% # attempts to use FU when none available
system.switch_cpus.iq.fu_full::SimdFloatMult            0      0.00%     69.43% # attempts to use FU when none available
system.switch_cpus.iq.fu_full::SimdFloatMultAcc            0      0.00%     69.43% # attempts to use FU when none available
system.switch_cpus.iq.fu_full::SimdFloatSqrt            0      0.00%     69.43% # attempts to use FU when none available
system.switch_cpus.iq.fu_full::SimdReduceAdd            0      0.00%     69.43% # attempts to use FU when none available
system.switch_cpus.iq.fu_full::SimdReduceAlu            0      0.00%     69.43% # attempts to use FU when none available
system.switch_cpus.iq.fu_full::SimdReduceCmp            0      0.00%     69.43% # attempts to use FU when none available
system.switch_cpus.iq.fu_full::SimdFloatReduceAdd            0      0.00%     69.43% # attempts to use FU when none available
system.switch_cpus.iq.fu_full::SimdFloatReduceCmp            0      0.00%     69.43% # attempts to use FU when none available
system.switch_cpus.iq.fu_full::SimdAes              0      0.00%     69.43% # attempts to use FU when none available
system.switch_cpus.iq.fu_full::SimdAesMix            0      0.00%     69.43% # attempts to use FU when none available
system.switch_cpus.iq.fu_full::SimdSha1Hash            0      0.00%     69.43% # attempts to use FU when none available
system.switch_cpus.iq.fu_full::SimdSha1Hash2            0      0.00%     69.43% # attempts to use FU when none available
system.switch_cpus.iq.fu_full::SimdSha256Hash            0      0.00%     69.43% # attempts to use FU when none available
system.switch_cpus.iq.fu_full::SimdSha256Hash2            0      0.00%     69.43% # attempts to use FU when none available
system.switch_cpus.iq.fu_full::SimdShaSigma2            0      0.00%     69.43% # attempts to use FU when none available
system.switch_cpus.iq.fu_full::SimdShaSigma3            0      0.00%     69.43% # attempts to use FU when none available
system.switch_cpus.iq.fu_full::SimdPredAlu            0      0.00%     69.43% # attempts to use FU when none available
system.switch_cpus.iq.fu_full::MemRead          53325     28.68%     98.11% # attempts to use FU when none available
system.switch_cpus.iq.fu_full::MemWrite          1357      0.73%     98.84% # attempts to use FU when none available
system.switch_cpus.iq.fu_full::FloatMemRead         2155      1.16%    100.00% # attempts to use FU when none available
system.switch_cpus.iq.fu_full::FloatMemWrite            0      0.00%    100.00% # attempts to use FU when none available
system.switch_cpus.iq.fu_full::IprAccess            0      0.00%    100.00% # attempts to use FU when none available
system.switch_cpus.iq.fu_full::InstPrefetch            0      0.00%    100.00% # attempts to use FU when none available
system.switch_cpus.iq.int_alu_accesses       15269568                       # Number of integer alu accesses
system.switch_cpus.iq.int_inst_queue_reads     36152576                       # Number of integer instruction queue reads
system.switch_cpus.iq.int_inst_queue_wakeup_accesses     15172432                       # Number of integer instruction queue wakeup accesses
system.switch_cpus.iq.int_inst_queue_writes     16526993                       # Number of integer instruction queue writes
system.switch_cpus.iq.iqInstsAdded           17221148                       # Number of instructions added to the IQ (excludes non-spec)
system.switch_cpus.iq.iqInstsIssued          16758550                       # Number of instructions issued
system.switch_cpus.iq.iqNonSpecInstsAdded           17                       # Number of non-speculative instructions added to the IQ
system.switch_cpus.iq.iqSquashedInstsExamined      1192750                       # Number of squashed instructions iterated over during squash; mainly for profiling
system.switch_cpus.iq.iqSquashedInstsIssued        77159                       # Number of squashed instructions issued
system.switch_cpus.iq.iqSquashedNonSpecRemoved           17                       # Number of squashed non-spec instructions that were removed
system.switch_cpus.iq.iqSquashedOperandsExamined      1725605                       # Number of squashed operands that are examined and possibly removed from graph
system.switch_cpus.iq.issued_per_cycle::samples      5504541                       # Number of insts issued each cycle
system.switch_cpus.iq.issued_per_cycle::mean     3.044495                       # Number of insts issued each cycle
system.switch_cpus.iq.issued_per_cycle::stdev     2.306667                       # Number of insts issued each cycle
system.switch_cpus.iq.issued_per_cycle::underflows            0      0.00%      0.00% # Number of insts issued each cycle
system.switch_cpus.iq.issued_per_cycle::0      1021001     18.55%     18.55% # Number of insts issued each cycle
system.switch_cpus.iq.issued_per_cycle::1       577992     10.50%     29.05% # Number of insts issued each cycle
system.switch_cpus.iq.issued_per_cycle::2       863105     15.68%     44.73% # Number of insts issued each cycle
system.switch_cpus.iq.issued_per_cycle::3       841469     15.29%     60.02% # Number of insts issued each cycle
system.switch_cpus.iq.issued_per_cycle::4       714939     12.99%     73.00% # Number of insts issued each cycle
system.switch_cpus.iq.issued_per_cycle::5       625086     11.36%     84.36% # Number of insts issued each cycle
system.switch_cpus.iq.issued_per_cycle::6       340710      6.19%     90.55% # Number of insts issued each cycle
system.switch_cpus.iq.issued_per_cycle::7       261417      4.75%     95.30% # Number of insts issued each cycle
system.switch_cpus.iq.issued_per_cycle::8       258822      4.70%    100.00% # Number of insts issued each cycle
system.switch_cpus.iq.issued_per_cycle::overflows            0      0.00%    100.00% # Number of insts issued each cycle
system.switch_cpus.iq.issued_per_cycle::min_value            0                       # Number of insts issued each cycle
system.switch_cpus.iq.issued_per_cycle::max_value            8                       # Number of insts issued each cycle
system.switch_cpus.iq.issued_per_cycle::total      5504541                       # Number of insts issued each cycle
system.switch_cpus.iq.rate                   3.039419                       # Inst issue rate
system.switch_cpus.iq.vec_alu_accesses              0                       # Number of vector alu accesses
system.switch_cpus.iq.vec_inst_queue_reads            0                       # Number of vector instruction queue reads
system.switch_cpus.iq.vec_inst_queue_wakeup_accesses            0                       # Number of vector instruction queue wakeup accesses
system.switch_cpus.iq.vec_inst_queue_writes            0                       # Number of vector instruction queue writes
system.switch_cpus.itb.rdAccesses                   0                       # TLB accesses on read requests
system.switch_cpus.itb.rdMisses                     0                       # TLB misses on read requests
system.switch_cpus.itb.wrAccesses              844326                       # TLB accesses on write requests
system.switch_cpus.itb.wrMisses                    44                       # TLB misses on write requests
system.switch_cpus.memDep0.conflictingLoads       322206                       # Number of conflicting loads.
system.switch_cpus.memDep0.conflictingStores       236222                       # Number of conflicting stores.
system.switch_cpus.memDep0.insertedLoads      3715086                       # Number of loads inserted to the mem dependence unit.
system.switch_cpus.memDep0.insertedStores      1423838                       # Number of stores inserted to the mem dependence unit.
system.switch_cpus.misc_regfile_reads         6715604                       # number of misc regfile reads
system.switch_cpus.misc_regfile_writes              1                       # number of misc regfile writes
system.switch_cpus.numCycles                  5513734                       # number of cpu cycles simulated
system.switch_cpus.numWorkItemsCompleted            0                       # number of work items this cpu completed
system.switch_cpus.numWorkItemsStarted              0                       # number of work items this cpu started
system.switch_cpus.rename.BlockCycles          293965                       # Number of cycles rename is blocking
system.switch_cpus.rename.CommittedMaps      20724563                       # Number of HB maps that are committed
system.switch_cpus.rename.IQFullEvents         137342                       # Number of times rename has blocked due to IQ full
system.switch_cpus.rename.IdleCycles           875215                       # Number of cycles rename is idle
system.switch_cpus.rename.LQFullEvents         435657                       # Number of times rename has blocked due to LQ full
system.switch_cpus.rename.ROBFullEvents          2825                       # Number of times rename has blocked due to ROB full
system.switch_cpus.rename.RenameLookups      54814331                       # Number of register rename lookups that rename has made
system.switch_cpus.rename.RenamedInsts       17443378                       # Number of instructions processed by rename
system.switch_cpus.rename.RenamedOperands     22418013                       # Number of destination operands rename has renamed
system.switch_cpus.rename.RunCycles           1976282                       # Number of cycles rename is running
system.switch_cpus.rename.SQFullEvents        1490116                       # Number of times rename has blocked due to SQ full
system.switch_cpus.rename.SquashCycles          19248                       # Number of cycles rename is squashing
system.switch_cpus.rename.UnblockCycles       2339825                       # Number of cycles rename is unblocking
system.switch_cpus.rename.UndoneMaps          1693369                       # Number of HB maps that are undone due to squashing
system.switch_cpus.rename.fp_rename_lookups      2999923                       # Number of floating rename lookups
system.switch_cpus.rename.int_rename_lookups     29956214                       # Number of integer rename lookups
system.switch_cpus.rename.serializeStallCycles            0                       # count of cycles rename stalled for serializing inst
system.switch_cpus.rename.serializingInsts            0                       # count of serializing insts renamed
system.switch_cpus.rename.skidInsts           4286114                       # count of insts added to the skid buffer
system.switch_cpus.rename.tempSerializingInsts            0                       # count of temporary serializing insts renamed
system.switch_cpus.rob.rob_reads             21292559                       # The number of ROB reads
system.switch_cpus.rob.rob_writes            34602500                       # The number of ROB writes
system.switch_cpus.timesIdled                     128                       # Number of times that the entire CPU went into an idle state and unscheduled itself
system.tol2bus.snoop_filter.hit_multi_requests            0                       # Number of requests hitting in the snoop filter with multiple (>1) holders of the requested data.
system.tol2bus.snoop_filter.hit_multi_snoops            0                       # Number of snoops hitting in the snoop filter with multiple (>1) holders of the requested data.
system.tol2bus.snoop_filter.hit_single_requests        24579                       # Number of requests hitting in the snoop filter with a single holder of the requested data.
system.tol2bus.snoop_filter.hit_single_snoops         3201                       # Number of snoops hitting in the snoop filter with a single holder of the requested data.
system.tol2bus.snoop_filter.tot_requests        50310                       # Total number of requests made to the snoop filter.
system.tol2bus.snoop_filter.tot_snoops           3201                       # Total number of snoops made to the snoop filter.
system.membus.pwrStateResidencyTicks::UNDEFINED 70892966153500                       # Cumulative time (in ticks) in various power states
system.membus.trans_dist::ReadResp               1291                       # Transaction distribution
system.membus.trans_dist::WritebackDirty         2609                       # Transaction distribution
system.membus.trans_dist::CleanEvict              691                       # Transaction distribution
system.membus.trans_dist::ReadExReq              4219                       # Transaction distribution
system.membus.trans_dist::ReadExResp             4219                       # Transaction distribution
system.membus.trans_dist::ReadSharedReq          1291                       # Transaction distribution
system.membus.pkt_count_system.l2.mem_side::system.mem_ctrls.port        14320                       # Packet count per connected master and slave (bytes)
system.membus.pkt_count_system.l2.mem_side::total        14320                       # Packet count per connected master and slave (bytes)
system.membus.pkt_count::total                  14320                       # Packet count per connected master and slave (bytes)
system.membus.pkt_size_system.l2.mem_side::system.mem_ctrls.port       519616                       # Cumulative packet size per connected master and slave (bytes)
system.membus.pkt_size_system.l2.mem_side::total       519616                       # Cumulative packet size per connected master and slave (bytes)
system.membus.pkt_size::total                  519616                       # Cumulative packet size per connected master and slave (bytes)
system.membus.snoops                                0                       # Total snoops (count)
system.membus.snoopTraffic                          0                       # Total snoop traffic (bytes)
system.membus.snoop_fanout::samples              5510                       # Request fanout histogram
system.membus.snoop_fanout::mean                    0                       # Request fanout histogram
system.membus.snoop_fanout::stdev                   0                       # Request fanout histogram
system.membus.snoop_fanout::underflows              0      0.00%      0.00% # Request fanout histogram
system.membus.snoop_fanout::0                    5510    100.00%    100.00% # Request fanout histogram
system.membus.snoop_fanout::1                       0      0.00%    100.00% # Request fanout histogram
system.membus.snoop_fanout::overflows               0      0.00%    100.00% # Request fanout histogram
system.membus.snoop_fanout::min_value               0                       # Request fanout histogram
system.membus.snoop_fanout::max_value               0                       # Request fanout histogram
system.membus.snoop_fanout::total                5510                       # Request fanout histogram
system.membus.reqLayer2.occupancy            20838500                       # Layer occupancy (ticks)
system.membus.reqLayer2.utilization               0.8                       # Layer utilization (%)
system.membus.respLayer1.occupancy           29271000                       # Layer occupancy (ticks)
system.membus.respLayer1.utilization              1.1                       # Layer utilization (%)
system.switch_cpus.pwrStateResidencyTicks::OFF   2756877250                       # Cumulative time (in ticks) in various power states
system.switch_cpus.dtb.walker.pwrStateResidencyTicks::UNDEFINED 70892966153500                       # Cumulative time (in ticks) in various power states
system.switch_cpus.itb.walker.pwrStateResidencyTicks::UNDEFINED 70892966153500                       # Cumulative time (in ticks) in various power states
system.tol2bus.pwrStateResidencyTicks::UNDEFINED 70892966153500                       # Cumulative time (in ticks) in various power states
system.tol2bus.trans_dist::ReadResp              5851                       # Transaction distribution
system.tol2bus.trans_dist::WritebackDirty        22165                       # Transaction distribution
system.tol2bus.trans_dist::WritebackClean          205                       # Transaction distribution
system.tol2bus.trans_dist::CleanEvict            8119                       # Transaction distribution
system.tol2bus.trans_dist::ReadExReq            19880                       # Transaction distribution
system.tol2bus.trans_dist::ReadExResp           19879                       # Transaction distribution
system.tol2bus.trans_dist::ReadCleanReq           332                       # Transaction distribution
system.tol2bus.trans_dist::ReadSharedReq         5519                       # Transaction distribution
system.tol2bus.pkt_count_system.cpu.icache.mem_side::system.l2.cpu_side          869                       # Packet count per connected master and slave (bytes)
system.tol2bus.pkt_count_system.cpu.dcache.mem_side::system.l2.cpu_side        75171                       # Packet count per connected master and slave (bytes)
system.tol2bus.pkt_count::total                 76040                       # Packet count per connected master and slave (bytes)
system.tol2bus.pkt_size_system.cpu.icache.mem_side::system.l2.cpu_side        34368                       # Cumulative packet size per connected master and slave (bytes)
system.tol2bus.pkt_size_system.cpu.dcache.mem_side::system.l2.cpu_side      2877056                       # Cumulative packet size per connected master and slave (bytes)
system.tol2bus.pkt_size::total                2911424                       # Cumulative packet size per connected master and slave (bytes)
system.tol2bus.snoops                            5910                       # Total snoops (count)
system.tol2bus.snoopTraffic                    166976                       # Total snoop traffic (bytes)
system.tol2bus.snoop_fanout::samples            31641                       # Request fanout histogram
system.tol2bus.snoop_fanout::mean            0.101166                       # Request fanout histogram
system.tol2bus.snoop_fanout::stdev           0.301553                       # Request fanout histogram
system.tol2bus.snoop_fanout::underflows             0      0.00%      0.00% # Request fanout histogram
system.tol2bus.snoop_fanout::0                  28440     89.88%     89.88% # Request fanout histogram
system.tol2bus.snoop_fanout::1                   3201     10.12%    100.00% # Request fanout histogram
system.tol2bus.snoop_fanout::2                      0      0.00%    100.00% # Request fanout histogram
system.tol2bus.snoop_fanout::3                      0      0.00%    100.00% # Request fanout histogram
system.tol2bus.snoop_fanout::4                      0      0.00%    100.00% # Request fanout histogram
system.tol2bus.snoop_fanout::overflows              0      0.00%    100.00% # Request fanout histogram
system.tol2bus.snoop_fanout::min_value              0                       # Request fanout histogram
system.tol2bus.snoop_fanout::max_value              1                       # Request fanout histogram
system.tol2bus.snoop_fanout::total              31641                       # Request fanout histogram
system.tol2bus.reqLayer0.occupancy           44912000                       # Layer occupancy (ticks)
system.tol2bus.reqLayer0.utilization              1.6                       # Layer utilization (%)
system.tol2bus.respLayer1.occupancy          38088000                       # Layer occupancy (ticks)
system.tol2bus.respLayer1.utilization             1.4                       # Layer utilization (%)
system.tol2bus.respLayer0.occupancy            495499                       # Layer occupancy (ticks)
system.tol2bus.respLayer0.utilization             0.0                       # Layer utilization (%)
system.voltage_domain.voltage                       1                       # Voltage in Volts
system.clk_domain.clock                          1000                       # Clock period in ticks
system.l2.pwrStateResidencyTicks::UNDEFINED 70892966153500                       # Cumulative time (in ticks) in various power states
system.l2.demand_hits::.switch_cpus.inst          196                       # number of demand (read+write) hits
system.l2.demand_hits::.switch_cpus.data        20025                       # number of demand (read+write) hits
system.l2.demand_hits::total                    20221                       # number of demand (read+write) hits
system.l2.overall_hits::.switch_cpus.inst          196                       # number of overall hits
system.l2.overall_hits::.switch_cpus.data        20025                       # number of overall hits
system.l2.overall_hits::total                   20221                       # number of overall hits
system.l2.demand_misses::.cpu.inst                  2                       # number of demand (read+write) misses
system.l2.demand_misses::.cpu.data                  6                       # number of demand (read+write) misses
system.l2.demand_misses::.switch_cpus.inst          134                       # number of demand (read+write) misses
system.l2.demand_misses::.switch_cpus.data         5368                       # number of demand (read+write) misses
system.l2.demand_misses::total                   5510                       # number of demand (read+write) misses
system.l2.overall_misses::.cpu.inst                 2                       # number of overall misses
system.l2.overall_misses::.cpu.data                 6                       # number of overall misses
system.l2.overall_misses::.switch_cpus.inst          134                       # number of overall misses
system.l2.overall_misses::.switch_cpus.data         5368                       # number of overall misses
system.l2.overall_misses::total                  5510                       # number of overall misses
system.l2.demand_miss_latency::.switch_cpus.inst     10723500                       # number of demand (read+write) miss cycles
system.l2.demand_miss_latency::.switch_cpus.data    423568000                       # number of demand (read+write) miss cycles
system.l2.demand_miss_latency::total        434291500                       # number of demand (read+write) miss cycles
system.l2.overall_miss_latency::.switch_cpus.inst     10723500                       # number of overall miss cycles
system.l2.overall_miss_latency::.switch_cpus.data    423568000                       # number of overall miss cycles
system.l2.overall_miss_latency::total       434291500                       # number of overall miss cycles
system.l2.demand_accesses::.cpu.inst                2                       # number of demand (read+write) accesses
system.l2.demand_accesses::.cpu.data                6                       # number of demand (read+write) accesses
system.l2.demand_accesses::.switch_cpus.inst          330                       # number of demand (read+write) accesses
system.l2.demand_accesses::.switch_cpus.data        25393                       # number of demand (read+write) accesses
system.l2.demand_accesses::total                25731                       # number of demand (read+write) accesses
system.l2.overall_accesses::.cpu.inst               2                       # number of overall (read+write) accesses
system.l2.overall_accesses::.cpu.data               6                       # number of overall (read+write) accesses
system.l2.overall_accesses::.switch_cpus.inst          330                       # number of overall (read+write) accesses
system.l2.overall_accesses::.switch_cpus.data        25393                       # number of overall (read+write) accesses
system.l2.overall_accesses::total               25731                       # number of overall (read+write) accesses
system.l2.demand_miss_rate::.cpu.inst               1                       # miss rate for demand accesses
system.l2.demand_miss_rate::.cpu.data               1                       # miss rate for demand accesses
system.l2.demand_miss_rate::.switch_cpus.inst     0.406061                       # miss rate for demand accesses
system.l2.demand_miss_rate::.switch_cpus.data     0.211397                       # miss rate for demand accesses
system.l2.demand_miss_rate::total            0.214139                       # miss rate for demand accesses
system.l2.overall_miss_rate::.cpu.inst              1                       # miss rate for overall accesses
system.l2.overall_miss_rate::.cpu.data              1                       # miss rate for overall accesses
system.l2.overall_miss_rate::.switch_cpus.inst     0.406061                       # miss rate for overall accesses
system.l2.overall_miss_rate::.switch_cpus.data     0.211397                       # miss rate for overall accesses
system.l2.overall_miss_rate::total           0.214139                       # miss rate for overall accesses
system.l2.demand_avg_miss_latency::.switch_cpus.inst 80026.119403                       # average overall miss latency
system.l2.demand_avg_miss_latency::.switch_cpus.data 78906.110283                       # average overall miss latency
system.l2.demand_avg_miss_latency::total 78818.784029                       # average overall miss latency
system.l2.overall_avg_miss_latency::.switch_cpus.inst 80026.119403                       # average overall miss latency
system.l2.overall_avg_miss_latency::.switch_cpus.data 78906.110283                       # average overall miss latency
system.l2.overall_avg_miss_latency::total 78818.784029                       # average overall miss latency
system.l2.blocked_cycles::no_mshrs                  0                       # number of cycles access was blocked
system.l2.blocked_cycles::no_targets                0                       # number of cycles access was blocked
system.l2.blocked::no_mshrs                         0                       # number of cycles access was blocked
system.l2.blocked::no_targets                       0                       # number of cycles access was blocked
system.l2.avg_blocked_cycles::no_mshrs            nan                       # average number of cycles each access was blocked
system.l2.avg_blocked_cycles::no_targets          nan                       # average number of cycles each access was blocked
system.l2.writebacks::.writebacks                2609                       # number of writebacks
system.l2.writebacks::total                      2609                       # number of writebacks
system.l2.demand_mshr_misses::.switch_cpus.inst          134                       # number of demand (read+write) MSHR misses
system.l2.demand_mshr_misses::.switch_cpus.data         5368                       # number of demand (read+write) MSHR misses
system.l2.demand_mshr_misses::total              5502                       # number of demand (read+write) MSHR misses
system.l2.overall_mshr_misses::.switch_cpus.inst          134                       # number of overall MSHR misses
system.l2.overall_mshr_misses::.switch_cpus.data         5368                       # number of overall MSHR misses
system.l2.overall_mshr_misses::total             5502                       # number of overall MSHR misses
system.l2.demand_mshr_miss_latency::.switch_cpus.inst      9383500                       # number of demand (read+write) MSHR miss cycles
system.l2.demand_mshr_miss_latency::.switch_cpus.data    369888000                       # number of demand (read+write) MSHR miss cycles
system.l2.demand_mshr_miss_latency::total    379271500                       # number of demand (read+write) MSHR miss cycles
system.l2.overall_mshr_miss_latency::.switch_cpus.inst      9383500                       # number of overall MSHR miss cycles
system.l2.overall_mshr_miss_latency::.switch_cpus.data    369888000                       # number of overall MSHR miss cycles
system.l2.overall_mshr_miss_latency::total    379271500                       # number of overall MSHR miss cycles
system.l2.demand_mshr_miss_rate::.switch_cpus.inst     0.406061                       # mshr miss rate for demand accesses
system.l2.demand_mshr_miss_rate::.switch_cpus.data     0.211397                       # mshr miss rate for demand accesses
system.l2.demand_mshr_miss_rate::total       0.213828                       # mshr miss rate for demand accesses
system.l2.overall_mshr_miss_rate::.switch_cpus.inst     0.406061                       # mshr miss rate for overall accesses
system.l2.overall_mshr_miss_rate::.switch_cpus.data     0.211397                       # mshr miss rate for overall accesses
system.l2.overall_mshr_miss_rate::total      0.213828                       # mshr miss rate for overall accesses
system.l2.demand_avg_mshr_miss_latency::.switch_cpus.inst 70026.119403                       # average overall mshr miss latency
system.l2.demand_avg_mshr_miss_latency::.switch_cpus.data 68906.110283                       # average overall mshr miss latency
system.l2.demand_avg_mshr_miss_latency::total 68933.387859                       # average overall mshr miss latency
system.l2.overall_avg_mshr_miss_latency::.switch_cpus.inst 70026.119403                       # average overall mshr miss latency
system.l2.overall_avg_mshr_miss_latency::.switch_cpus.data 68906.110283                       # average overall mshr miss latency
system.l2.overall_avg_mshr_miss_latency::total 68933.387859                       # average overall mshr miss latency
system.l2.replacements                           5910                       # number of replacements
system.l2.WritebackDirty_hits::.writebacks        19556                       # number of WritebackDirty hits
system.l2.WritebackDirty_hits::total            19556                       # number of WritebackDirty hits
system.l2.WritebackDirty_accesses::.writebacks        19556                       # number of WritebackDirty accesses(hits+misses)
system.l2.WritebackDirty_accesses::total        19556                       # number of WritebackDirty accesses(hits+misses)
system.l2.WritebackClean_hits::.writebacks          205                       # number of WritebackClean hits
system.l2.WritebackClean_hits::total              205                       # number of WritebackClean hits
system.l2.WritebackClean_accesses::.writebacks          205                       # number of WritebackClean accesses(hits+misses)
system.l2.WritebackClean_accesses::total          205                       # number of WritebackClean accesses(hits+misses)
system.l2.CleanEvict_mshr_misses::.writebacks          591                       # number of CleanEvict MSHR misses
system.l2.CleanEvict_mshr_misses::total           591                       # number of CleanEvict MSHR misses
system.l2.CleanEvict_mshr_miss_rate::.writebacks          inf                       # mshr miss rate for CleanEvict accesses
system.l2.CleanEvict_mshr_miss_rate::total          inf                       # mshr miss rate for CleanEvict accesses
system.l2.ReadExReq_hits::.switch_cpus.data        15661                       # number of ReadExReq hits
system.l2.ReadExReq_hits::total                 15661                       # number of ReadExReq hits
system.l2.ReadExReq_misses::.cpu.data               2                       # number of ReadExReq misses
system.l2.ReadExReq_misses::.switch_cpus.data         4217                       # number of ReadExReq misses
system.l2.ReadExReq_misses::total                4219                       # number of ReadExReq misses
system.l2.ReadExReq_miss_latency::.switch_cpus.data    324776000                       # number of ReadExReq miss cycles
system.l2.ReadExReq_miss_latency::total     324776000                       # number of ReadExReq miss cycles
system.l2.ReadExReq_accesses::.cpu.data             2                       # number of ReadExReq accesses(hits+misses)
system.l2.ReadExReq_accesses::.switch_cpus.data        19878                       # number of ReadExReq accesses(hits+misses)
system.l2.ReadExReq_accesses::total             19880                       # number of ReadExReq accesses(hits+misses)
system.l2.ReadExReq_miss_rate::.cpu.data            1                       # miss rate for ReadExReq accesses
system.l2.ReadExReq_miss_rate::.switch_cpus.data     0.212144                       # miss rate for ReadExReq accesses
system.l2.ReadExReq_miss_rate::total         0.212223                       # miss rate for ReadExReq accesses
system.l2.ReadExReq_avg_miss_latency::.switch_cpus.data 77015.888072                       # average ReadExReq miss latency
system.l2.ReadExReq_avg_miss_latency::total 76979.379000                       # average ReadExReq miss latency
system.l2.ReadExReq_mshr_misses::.switch_cpus.data         4217                       # number of ReadExReq MSHR misses
system.l2.ReadExReq_mshr_misses::total           4217                       # number of ReadExReq MSHR misses
system.l2.ReadExReq_mshr_miss_latency::.switch_cpus.data    282606000                       # number of ReadExReq MSHR miss cycles
system.l2.ReadExReq_mshr_miss_latency::total    282606000                       # number of ReadExReq MSHR miss cycles
system.l2.ReadExReq_mshr_miss_rate::.switch_cpus.data     0.212144                       # mshr miss rate for ReadExReq accesses
system.l2.ReadExReq_mshr_miss_rate::total     0.212123                       # mshr miss rate for ReadExReq accesses
system.l2.ReadExReq_avg_mshr_miss_latency::.switch_cpus.data 67015.888072                       # average ReadExReq mshr miss latency
system.l2.ReadExReq_avg_mshr_miss_latency::total 67015.888072                       # average ReadExReq mshr miss latency
system.l2.ReadCleanReq_hits::.switch_cpus.inst          196                       # number of ReadCleanReq hits
system.l2.ReadCleanReq_hits::total                196                       # number of ReadCleanReq hits
system.l2.ReadCleanReq_misses::.cpu.inst            2                       # number of ReadCleanReq misses
system.l2.ReadCleanReq_misses::.switch_cpus.inst          134                       # number of ReadCleanReq misses
system.l2.ReadCleanReq_misses::total              136                       # number of ReadCleanReq misses
system.l2.ReadCleanReq_miss_latency::.switch_cpus.inst     10723500                       # number of ReadCleanReq miss cycles
system.l2.ReadCleanReq_miss_latency::total     10723500                       # number of ReadCleanReq miss cycles
system.l2.ReadCleanReq_accesses::.cpu.inst            2                       # number of ReadCleanReq accesses(hits+misses)
system.l2.ReadCleanReq_accesses::.switch_cpus.inst          330                       # number of ReadCleanReq accesses(hits+misses)
system.l2.ReadCleanReq_accesses::total            332                       # number of ReadCleanReq accesses(hits+misses)
system.l2.ReadCleanReq_miss_rate::.cpu.inst            1                       # miss rate for ReadCleanReq accesses
system.l2.ReadCleanReq_miss_rate::.switch_cpus.inst     0.406061                       # miss rate for ReadCleanReq accesses
[...]
system.cpu.dtb_walker_cache.pwrStateResidencyTicks::UNDEFINED 70901431682000                       # Cumulative time (in ticks) in various power states
system.cpu.dtb_walker_cache.blocked_cycles::no_mshrs            0                       # number of cycles access was blocked
system.cpu.dtb_walker_cache.blocked_cycles::no_targets            0                       # number of cycles access was blocked
system.cpu.dtb_walker_cache.blocked::no_mshrs            0                       # number of cycles access was blocked
system.cpu.dtb_walker_cache.blocked::no_targets            0                       # number of cycles access was blocked
system.cpu.dtb_walker_cache.avg_blocked_cycles::no_mshrs          nan                       # average number of cycles each access was blocked
system.cpu.dtb_walker_cache.avg_blocked_cycles::no_targets          nan                       # average number of cycles each access was blocked
system.cpu.dtb_walker_cache.replacements            0                       # number of replacements
system.cpu.dtb_walker_cache.tags.pwrStateResidencyTicks::UNDEFINED 70901431682000                       # Cumulative time (in ticks) in various power states
system.cpu.dtb_walker_cache.tags.tagsinuse            0                       # Cycle average of tags in use
system.cpu.dtb_walker_cache.tags.total_refs            0                       # Total number of references to valid blocks.
system.cpu.dtb_walker_cache.tags.sampled_refs            0                       # Sample count of references to valid blocks.
system.cpu.dtb_walker_cache.tags.avg_refs          nan                       # Average number of references to valid blocks.
system.cpu.dtb_walker_cache.tags.warmup_cycle            0                       # Cycle when the warmup percentage was hit.
system.cpu.dtb_walker_cache.tags.tag_accesses            0                       # Number of tag accesses
system.cpu.dtb_walker_cache.tags.data_accesses            0                       # Number of data accesses
system.cpu.dcache.pwrStateResidencyTicks::UNDEFINED 70901431682000                       # Cumulative time (in ticks) in various power states
system.cpu.dcache.demand_hits::.cpu.data            1                       # number of demand (read+write) hits
system.cpu.dcache.demand_hits::.switch_cpus.data     18884199                       # number of demand (read+write) hits
system.cpu.dcache.demand_hits::total         18884200                       # number of demand (read+write) hits
system.cpu.dcache.overall_hits::.cpu.data            1                       # number of overall hits
system.cpu.dcache.overall_hits::.switch_cpus.data     18930949                       # number of overall hits
system.cpu.dcache.overall_hits::total        18930950                       # number of overall hits
system.cpu.dcache.demand_misses::.cpu.data            6                       # number of demand (read+write) misses
system.cpu.dcache.demand_misses::.switch_cpus.data       107335                       # number of demand (read+write) misses
system.cpu.dcache.demand_misses::total         107341                       # number of demand (read+write) misses
system.cpu.dcache.overall_misses::.cpu.data            6                       # number of overall misses
system.cpu.dcache.overall_misses::.switch_cpus.data       111961                       # number of overall misses
system.cpu.dcache.overall_misses::total        111967                       # number of overall misses
system.cpu.dcache.demand_miss_latency::.switch_cpus.data   2937655491                       # number of demand (read+write) miss cycles
system.cpu.dcache.demand_miss_latency::total   2937655491                       # number of demand (read+write) miss cycles
system.cpu.dcache.overall_miss_latency::.switch_cpus.data   2937655491                       # number of overall miss cycles
system.cpu.dcache.overall_miss_latency::total   2937655491                       # number of overall miss cycles
system.cpu.dcache.demand_accesses::.cpu.data            7                       # number of demand (read+write) accesses
system.cpu.dcache.demand_accesses::.switch_cpus.data     18991534                       # number of demand (read+write) accesses
system.cpu.dcache.demand_accesses::total     18991541                       # number of demand (read+write) accesses
system.cpu.dcache.overall_accesses::.cpu.data            7                       # number of overall (read+write) accesses
system.cpu.dcache.overall_accesses::.switch_cpus.data     19042910                       # number of overall (read+write) accesses
system.cpu.dcache.overall_accesses::total     19042917                       # number of overall (read+write) accesses
system.cpu.dcache.demand_miss_rate::.cpu.data     0.857143                       # miss rate for demand accesses
system.cpu.dcache.demand_miss_rate::.switch_cpus.data     0.005652                       # miss rate for demand accesses
system.cpu.dcache.demand_miss_rate::total     0.005652                       # miss rate for demand accesses
system.cpu.dcache.overall_miss_rate::.cpu.data     0.857143                       # miss rate for overall accesses
system.cpu.dcache.overall_miss_rate::.switch_cpus.data     0.005879                       # miss rate for overall accesses
system.cpu.dcache.overall_miss_rate::total     0.005880                       # miss rate for overall accesses
system.cpu.dcache.demand_avg_miss_latency::.switch_cpus.data 27369.036111                       # average overall miss latency
system.cpu.dcache.demand_avg_miss_latency::total 27367.506274                       # average overall miss latency
system.cpu.dcache.overall_avg_miss_latency::.switch_cpus.data 26238.203401                       # average overall miss latency
system.cpu.dcache.overall_avg_miss_latency::total 26236.797369                       # average overall miss latency
system.cpu.dcache.blocked_cycles::no_mshrs        15471                       # number of cycles access was blocked
system.cpu.dcache.blocked_cycles::no_targets          267                       # number of cycles access was blocked
system.cpu.dcache.blocked::no_mshrs               860                       # number of cycles access was blocked
system.cpu.dcache.blocked::no_targets               3                       # number of cycles access was blocked
system.cpu.dcache.avg_blocked_cycles::no_mshrs    17.989535                       # average number of cycles each access was blocked
system.cpu.dcache.avg_blocked_cycles::no_targets           89                       # average number of cycles each access was blocked
system.cpu.dcache.writebacks::.writebacks        83799                       # number of writebacks
system.cpu.dcache.writebacks::total             83799                       # number of writebacks
system.cpu.dcache.demand_mshr_hits::.switch_cpus.data         4368                       # number of demand (read+write) MSHR hits
system.cpu.dcache.demand_mshr_hits::total         4368                       # number of demand (read+write) MSHR hits
system.cpu.dcache.overall_mshr_hits::.switch_cpus.data         4368                       # number of overall MSHR hits
system.cpu.dcache.overall_mshr_hits::total         4368                       # number of overall MSHR hits
system.cpu.dcache.demand_mshr_misses::.switch_cpus.data       102967                       # number of demand (read+write) MSHR misses
system.cpu.dcache.demand_mshr_misses::total       102967                       # number of demand (read+write) MSHR misses
system.cpu.dcache.overall_mshr_misses::.switch_cpus.data       105040                       # number of overall MSHR misses
system.cpu.dcache.overall_mshr_misses::total       105040                       # number of overall MSHR misses
system.cpu.dcache.demand_mshr_miss_latency::.switch_cpus.data   2678882492                       # number of demand (read+write) MSHR miss cycles
system.cpu.dcache.demand_mshr_miss_latency::total   2678882492                       # number of demand (read+write) MSHR miss cycles
system.cpu.dcache.overall_mshr_miss_latency::.switch_cpus.data   2783129492                       # number of overall MSHR miss cycles
system.cpu.dcache.overall_mshr_miss_latency::total   2783129492                       # number of overall MSHR miss cycles
system.cpu.dcache.demand_mshr_miss_rate::.switch_cpus.data     0.005422                       # mshr miss rate for demand accesses
system.cpu.dcache.demand_mshr_miss_rate::total     0.005422                       # mshr miss rate for demand accesses
system.cpu.dcache.overall_mshr_miss_rate::.switch_cpus.data     0.005516                       # mshr miss rate for overall accesses
system.cpu.dcache.overall_mshr_miss_rate::total     0.005516                       # mshr miss rate for overall accesses
system.cpu.dcache.demand_avg_mshr_miss_latency::.switch_cpus.data 26016.903396                       # average overall mshr miss latency
system.cpu.dcache.demand_avg_mshr_miss_latency::total 26016.903396                       # average overall mshr miss latency
system.cpu.dcache.overall_avg_mshr_miss_latency::.switch_cpus.data 26495.901485                       # average overall mshr miss latency
system.cpu.dcache.overall_avg_mshr_miss_latency::total 26495.901485                       # average overall mshr miss latency
system.cpu.dcache.replacements                 104022                       # number of replacements
system.cpu.dcache.ReadReq_hits::.cpu.data            1                       # number of ReadReq hits
system.cpu.dcache.ReadReq_hits::.switch_cpus.data     13352382                       # number of ReadReq hits
system.cpu.dcache.ReadReq_hits::total        13352383                       # number of ReadReq hits
system.cpu.dcache.ReadReq_misses::.cpu.data            4                       # number of ReadReq misses
system.cpu.dcache.ReadReq_misses::.switch_cpus.data        26012                       # number of ReadReq misses
system.cpu.dcache.ReadReq_misses::total         26016                       # number of ReadReq misses
system.cpu.dcache.ReadReq_miss_latency::.switch_cpus.data    803202000                       # number of ReadReq miss cycles
system.cpu.dcache.ReadReq_miss_latency::total    803202000                       # number of ReadReq miss cycles
system.cpu.dcache.ReadReq_accesses::.cpu.data            5                       # number of ReadReq accesses(hits+misses)
system.cpu.dcache.ReadReq_accesses::.switch_cpus.data     13378394                       # number of ReadReq accesses(hits+misses)
system.cpu.dcache.ReadReq_accesses::total     13378399                       # number of ReadReq accesses(hits+misses)
system.cpu.dcache.ReadReq_miss_rate::.cpu.data     0.800000                       # miss rate for ReadReq accesses
system.cpu.dcache.ReadReq_miss_rate::.switch_cpus.data     0.001944                       # miss rate for ReadReq accesses
system.cpu.dcache.ReadReq_miss_rate::total     0.001945                       # miss rate for ReadReq accesses
system.cpu.dcache.ReadReq_avg_miss_latency::.switch_cpus.data 30878.133169                       # average ReadReq miss latency
system.cpu.dcache.ReadReq_avg_miss_latency::total 30873.385609                       # average ReadReq miss latency
system.cpu.dcache.ReadReq_mshr_hits::.switch_cpus.data         4343                       # number of ReadReq MSHR hits
system.cpu.dcache.ReadReq_mshr_hits::total         4343                       # number of ReadReq MSHR hits
system.cpu.dcache.ReadReq_mshr_misses::.switch_cpus.data        21669                       # number of ReadReq MSHR misses
system.cpu.dcache.ReadReq_mshr_misses::total        21669                       # number of ReadReq MSHR misses
system.cpu.dcache.ReadReq_mshr_miss_latency::.switch_cpus.data    626402000                       # number of ReadReq MSHR miss cycles
system.cpu.dcache.ReadReq_mshr_miss_latency::total    626402000                       # number of ReadReq MSHR miss cycles
system.cpu.dcache.ReadReq_mshr_miss_rate::.switch_cpus.data     0.001620                       # mshr miss rate for ReadReq accesses
system.cpu.dcache.ReadReq_mshr_miss_rate::total     0.001620                       # mshr miss rate for ReadReq accesses
system.cpu.dcache.ReadReq_avg_mshr_miss_latency::.switch_cpus.data 28907.748396                       # average ReadReq mshr miss latency
system.cpu.dcache.ReadReq_avg_mshr_miss_latency::total 28907.748396                       # average ReadReq mshr miss latency
system.cpu.dcache.WriteReq_hits::.switch_cpus.data      5531817                       # number of WriteReq hits
system.cpu.dcache.WriteReq_hits::total        5531817                       # number of WriteReq hits
system.cpu.dcache.WriteReq_misses::.cpu.data            2                       # number of WriteReq misses
system.cpu.dcache.WriteReq_misses::.switch_cpus.data        81323                       # number of WriteReq misses
system.cpu.dcache.WriteReq_misses::total        81325                       # number of WriteReq misses
system.cpu.dcache.WriteReq_miss_latency::.switch_cpus.data   2134453491                       # number of WriteReq miss cycles
system.cpu.dcache.WriteReq_miss_latency::total   2134453491                       # number of WriteReq miss cycles
system.cpu.dcache.WriteReq_accesses::.cpu.data            2                       # number of WriteReq accesses(hits+misses)
system.cpu.dcache.WriteReq_accesses::.switch_cpus.data      5613140                       # number of WriteReq accesses(hits+misses)
system.cpu.dcache.WriteReq_accesses::total      5613142                       # number of WriteReq accesses(hits+misses)
system.cpu.dcache.WriteReq_miss_rate::.cpu.data            1                       # miss rate for WriteReq accesses
system.cpu.dcache.WriteReq_miss_rate::.switch_cpus.data     0.014488                       # miss rate for WriteReq accesses
system.cpu.dcache.WriteReq_miss_rate::total     0.014488                       # miss rate for WriteReq accesses
system.cpu.dcache.WriteReq_avg_miss_latency::.switch_cpus.data 26246.615238                       # average WriteReq miss latency
system.cpu.dcache.WriteReq_avg_miss_latency::total 26245.969763                       # average WriteReq miss latency
system.cpu.dcache.WriteReq_mshr_hits::.switch_cpus.data           25                       # number of WriteReq MSHR hits
system.cpu.dcache.WriteReq_mshr_hits::total           25                       # number of WriteReq MSHR hits
system.cpu.dcache.WriteReq_mshr_misses::.switch_cpus.data        81298                       # number of WriteReq MSHR misses
system.cpu.dcache.WriteReq_mshr_misses::total        81298                       # number of WriteReq MSHR misses
system.cpu.dcache.WriteReq_mshr_miss_latency::.switch_cpus.data   2052480492                       # number of WriteReq MSHR miss cycles
system.cpu.dcache.WriteReq_mshr_miss_latency::total   2052480492                       # number of WriteReq MSHR miss cycles
system.cpu.dcache.WriteReq_mshr_miss_rate::.switch_cpus.data     0.014484                       # mshr miss rate for WriteReq accesses
system.cpu.dcache.WriteReq_mshr_miss_rate::total     0.014484                       # mshr miss rate for WriteReq accesses
system.cpu.dcache.WriteReq_avg_mshr_miss_latency::.switch_cpus.data 25246.383576                       # average WriteReq mshr miss latency
system.cpu.dcache.WriteReq_avg_mshr_miss_latency::total 25246.383576                       # average WriteReq mshr miss latency
system.cpu.dcache.SoftPFReq_hits::.switch_cpus.data        46750                       # number of SoftPFReq hits
system.cpu.dcache.SoftPFReq_hits::total         46750                       # number of SoftPFReq hits
system.cpu.dcache.SoftPFReq_misses::.switch_cpus.data         4626                       # number of SoftPFReq misses
system.cpu.dcache.SoftPFReq_misses::total         4626                       # number of SoftPFReq misses
system.cpu.dcache.SoftPFReq_accesses::.switch_cpus.data        51376                       # number of SoftPFReq accesses(hits+misses)
system.cpu.dcache.SoftPFReq_accesses::total        51376                       # number of SoftPFReq accesses(hits+misses)
system.cpu.dcache.SoftPFReq_miss_rate::.switch_cpus.data     0.090042                       # miss rate for SoftPFReq accesses
system.cpu.dcache.SoftPFReq_miss_rate::total     0.090042                       # miss rate for SoftPFReq accesses
system.cpu.dcache.SoftPFReq_mshr_misses::.switch_cpus.data         2073                       # number of SoftPFReq MSHR misses
system.cpu.dcache.SoftPFReq_mshr_misses::total         2073                       # number of SoftPFReq MSHR misses
system.cpu.dcache.SoftPFReq_mshr_miss_latency::.switch_cpus.data    104247000                       # number of SoftPFReq MSHR miss cycles
system.cpu.dcache.SoftPFReq_mshr_miss_latency::total    104247000                       # number of SoftPFReq MSHR miss cycles
system.cpu.dcache.SoftPFReq_mshr_miss_rate::.switch_cpus.data     0.040350                       # mshr miss rate for SoftPFReq accesses
system.cpu.dcache.SoftPFReq_mshr_miss_rate::total     0.040350                       # mshr miss rate for SoftPFReq accesses
system.cpu.dcache.SoftPFReq_avg_mshr_miss_latency::.switch_cpus.data 50287.988423                       # average SoftPFReq mshr miss latency
system.cpu.dcache.SoftPFReq_avg_mshr_miss_latency::total 50287.988423                       # average SoftPFReq mshr miss latency
system.cpu.dcache.tags.pwrStateResidencyTicks::UNDEFINED 70901431682000                       # Cumulative time (in ticks) in various power states
system.cpu.dcache.tags.tagsinuse             0.160895                       # Cycle average of tags in use
system.cpu.dcache.tags.total_refs            19035996                       # Total number of references to valid blocks.
system.cpu.dcache.tags.sampled_refs            105046                       # Sample count of references to valid blocks.
system.cpu.dcache.tags.avg_refs            181.215810                       # Average number of references to valid blocks.
system.cpu.dcache.tags.warmup_cycle      70890209278500                       # Cycle when the warmup percentage was hit.
system.cpu.dcache.tags.occ_blocks::.cpu.data     0.000414                       # Average occupied blocks per requestor
system.cpu.dcache.tags.occ_blocks::.switch_cpus.data     0.160481                       # Average occupied blocks per requestor
system.cpu.dcache.tags.occ_percent::.cpu.data     0.000000                       # Average percentage of cache occupancy
system.cpu.dcache.tags.occ_percent::.switch_cpus.data     0.000157                       # Average percentage of cache occupancy
system.cpu.dcache.tags.occ_percent::total     0.000157                       # Average percentage of cache occupancy
system.cpu.dcache.tags.occ_task_id_blocks::1024         1024                       # Occupied blocks per task id
system.cpu.dcache.tags.age_task_id_blocks_1024::0           15                       # Occupied blocks per task id
system.cpu.dcache.tags.age_task_id_blocks_1024::1          492                       # Occupied blocks per task id
system.cpu.dcache.tags.age_task_id_blocks_1024::2          477                       # Occupied blocks per task id
system.cpu.dcache.tags.age_task_id_blocks_1024::3           40                       # Occupied blocks per task id
system.cpu.dcache.tags.occ_task_id_percent::1024            1                       # Percentage of cache occupancy per task id
system.cpu.dcache.tags.tag_accesses          38190880                       # Number of tag accesses
system.cpu.dcache.tags.data_accesses         38190880                       # Number of data accesses

---------- End Simulation Statistics   ----------
