
---------- Begin Simulation Statistics ----------
final_tick                               371669950924500                       # Number of ticks from beginning of simulation (restored from checkpoints and never reset)
host_inst_rate                                  32221                       # Simulator instruction rate (inst/s)
host_mem_usage                                 898156                       # Number of bytes of host memory used
host_op_rate                                    72093                       # Simulator op (including micro ops) rate (op/s)
host_seconds                                   310.36                       # Real time elapsed on the host
host_tick_rate                               28534896                       # Simulator tick rate (ticks/s)
sim_freq                                 1000000000000                       # Frequency of simulated ticks
sim_insts                                    10000006                       # Number of instructions simulated
sim_ops                                      22374673                       # Number of ops (including micro ops) simulated
sim_seconds                                  0.008856                       # Number of seconds simulated
sim_ticks                                  8856042000                       # Number of ticks simulated
system.cpu.committedInsts                           5                       # Number of instructions committed
system.cpu.committedOps                            17                       # Number of ops (including micro ops) committed
system.cpu.dtb.rdAccesses                           8                       # TLB accesses on read requests
system.cpu.dtb.rdMisses                             0                       # TLB misses on read requests
system.cpu.dtb.wrAccesses                           0                       # TLB accesses on write requests
system.cpu.dtb.wrMisses                             0                       # TLB misses on write requests
system.cpu.idle_fraction                            0                       # Percentage of idle cycles
system.cpu.itb.rdAccesses                           0                       # TLB accesses on read requests
system.cpu.itb.rdMisses                             0                       # TLB misses on read requests
system.cpu.itb.wrAccesses                          10                       # TLB accesses on write requests
system.cpu.itb.wrMisses                             0                       # TLB misses on write requests
system.cpu.not_idle_fraction                        1                       # Percentage of non-idle cycles
system.cpu.numCycles                               22                       # number of cpu cycles simulated
system.cpu.numWorkItemsCompleted                    0                       # number of work items this cpu completed
system.cpu.numWorkItemsStarted                      0                       # number of work items this cpu started
system.cpu.num_busy_cycles                         22                       # Number of busy cycles
system.cpu.num_conditional_control_insts            0                       # number of instructions that are conditional controls
system.cpu.num_fp_alu_accesses                     16                       # Number of float alu accesses
system.cpu.num_fp_insts                            16                       # number of float instructions
system.cpu.num_fp_register_reads                   24                       # number of times the floating registers were read
system.cpu.num_fp_register_writes                  16                       # number of times the floating registers were written
system.cpu.num_func_calls                           0                       # number of times a function call or return occured
system.cpu.num_idle_cycles                          0                       # Number of idle cycles
system.cpu.num_int_alu_accesses                     9                       # Number of integer alu accesses
system.cpu.num_int_insts                            9                       # number of integer instructions
system.cpu.num_int_register_reads                  25                       # number of times the integer registers were read
system.cpu.num_int_register_writes                  1                       # number of times the integer registers were written
system.cpu.num_load_insts                           8                       # Number of load instructions
system.cpu.num_mem_refs                             8                       # number of memory refs
system.cpu.num_store_insts                          0                       # Number of store instructions
system.cpu.num_vec_alu_accesses                     0                       # Number of vector alu accesses
system.cpu.num_vec_insts                            0                       # number of vector instructions
system.cpu.num_vec_register_reads                   0                       # number of times the vector registers were read
system.cpu.num_vec_register_writes                  0                       # number of times the vector registers were written
system.cpu.op_class::No_OpClass                     0      0.00%      0.00% # Class of executed instruction
system.cpu.op_class::IntAlu                         1      5.88%      5.88% # Class of executed instruction
system.cpu.op_class::IntMult                        0      0.00%      5.88% # Class of executed instruction
system.cpu.op_class::IntDiv                         0      0.00%      5.88% # Class of executed instruction
system.cpu.op_class::FloatAdd                       0      0.00%      5.88% # Class of executed instruction
system.cpu.op_class::FloatCmp                       0      0.00%      5.88% # Class of executed instruction
system.cpu.op_class::FloatCvt                       0      0.00%      5.88% # Class of executed instruction
system.cpu.op_class::FloatMult                      0      0.00%      5.88% # Class of executed instruction
system.cpu.op_class::FloatMultAcc                   0      0.00%      5.88% # Class of executed instruction
system.cpu.op_class::FloatDiv                       0      0.00%      5.88% # Class of executed instruction
system.cpu.op_class::FloatMisc                      0      0.00%      5.88% # Class of executed instruction
system.cpu.op_class::FloatSqrt                      0      0.00%      5.88% # Class of executed instruction
system.cpu.op_class::SimdAdd                        0      0.00%      5.88% # Class of executed instruction
system.cpu.op_class::SimdAddAcc                     0      0.00%      5.88% # Class of executed instruction
system.cpu.op_class::SimdAlu                        0      0.00%      5.88% # Class of executed instruction
system.cpu.op_class::SimdCmp                        0      0.00%      5.88% # Class of executed instruction
system.cpu.op_class::SimdCvt                        0      0.00%      5.88% # Class of executed instruction
system.cpu.op_class::SimdMisc                       0      0.00%      5.88% # Class of executed instruction
system.cpu.op_class::SimdMult                       0      0.00%      5.88% # Class of executed instruction
system.cpu.op_class::SimdMultAcc                    0      0.00%      5.88% # Class of executed instruction
system.cpu.op_class::SimdShift                      0      0.00%      5.88% # Class of executed instruction
system.cpu.op_class::SimdShiftAcc                   0      0.00%      5.88% # Class of executed instruction
system.cpu.op_class::SimdDiv                        0      0.00%      5.88% # Class of executed instruction
system.cpu.op_class::SimdSqrt                       0      0.00%      5.88% # Class of executed instruction
system.cpu.op_class::SimdFloatAdd                   4     23.53%     29.41% # Class of executed instruction
system.cpu.op_class::SimdFloatAlu                   0      0.00%     29.41% # Class of executed instruction
system.cpu.op_class::SimdFloatCmp                   0      0.00%     29.41% # Class of executed instruction
system.cpu.op_class::SimdFloatCvt                   0      0.00%     29.41% # Class of executed instruction
system.cpu.op_class::SimdFloatDiv                   0      0.00%     29.41% # Class of executed instruction
system.cpu.op_class::SimdFloatMisc                  0      0.00%     29.41% # Class of executed instruction
system.cpu.op_class::SimdFloatMult                  4     23.53%     52.94% # Class of executed instruction
system.cpu.op_class::SimdFloatMultAcc               0      0.00%     52.94% # Class of executed instruction
system.cpu.op_class::SimdFloatSqrt                  0      0.00%     52.94% # Class of executed instruction
system.cpu.op_class::SimdReduceAdd                  0      0.00%     52.94% # Class of executed instruction
system.cpu.op_class::SimdReduceAlu                  0      0.00%     52.94% # Class of executed instruction
system.cpu.op_class::SimdReduceCmp                  0      0.00%     52.94% # Class of executed instruction
system.cpu.op_class::SimdFloatReduceAdd             0      0.00%     52.94% # Class of executed instruction
system.cpu.op_class::SimdFloatReduceCmp             0      0.00%     52.94% # Class of executed instruction
system.cpu.op_class::SimdAes                        0      0.00%     52.94% # Class of executed instruction
system.cpu.op_class::SimdAesMix                     0      0.00%     52.94% # Class of executed instruction
system.cpu.op_class::SimdSha1Hash                   0      0.00%     52.94% # Class of executed instruction
system.cpu.op_class::SimdSha1Hash2                  0      0.00%     52.94% # Class of executed instruction
system.cpu.op_class::SimdSha256Hash                 0      0.00%     52.94% # Class of executed instruction
system.cpu.op_class::SimdSha256Hash2                0      0.00%     52.94% # Class of executed instruction
system.cpu.op_class::SimdShaSigma2                  0      0.00%     52.94% # Class of executed instruction
system.cpu.op_class::SimdShaSigma3                  0      0.00%     52.94% # Class of executed instruction
system.cpu.op_class::SimdPredAlu                    0      0.00%     52.94% # Class of executed instruction
system.cpu.op_class::MemRead                        0      0.00%     52.94% # Class of executed instruction
system.cpu.op_class::MemWrite                       0      0.00%     52.94% # Class of executed instruction
system.cpu.op_class::FloatMemRead                   8     47.06%    100.00% # Class of executed instruction
system.cpu.op_class::FloatMemWrite                  0      0.00%    100.00% # Class of executed instruction
system.cpu.op_class::IprAccess                      0      0.00%    100.00% # Class of executed instruction
system.cpu.op_class::InstPrefetch                   0      0.00%    100.00% # Class of executed instruction
system.cpu.op_class::total                         17                       # Class of executed instruction
system.cpu.workload.numSyscalls                     5                       # Number of system calls
system.membus.snoop_filter.hit_multi_requests            0                       # Number of requests hitting in the snoop filter with multiple (>1) holders of the requested data.
system.membus.snoop_filter.hit_multi_snoops            0                       # Number of snoops hitting in the snoop filter with multiple (>1) holders of the requested data.
system.membus.snoop_filter.hit_single_requests       109657                       # Number of requests hitting in the snoop filter with a single holder of the requested data.
system.membus.snoop_filter.hit_single_snoops            0                       # Number of snoops hitting in the snoop filter with a single holder of the requested data.
system.membus.snoop_filter.tot_requests        221964                       # Total number of requests made to the snoop filter.
system.membus.snoop_filter.tot_snoops               0                       # Total number of snoops made to the snoop filter.
system.switch_cpus.branchPred.BTBCorrect            0                       # Number of correct BTB predictions (this stat may not work properly.
system.switch_cpus.branchPred.BTBHitPct      0.000000                       # BTB Hit Percentage
system.switch_cpus.branchPred.BTBHits               0                       # Number of BTB hits
system.switch_cpus.branchPred.BTBLookups       130648                       # Number of BTB lookups
system.switch_cpus.branchPred.RASInCorrect           42                       # Number of incorrect RAS predictions.
system.switch_cpus.branchPred.condIncorrect         6954                       # Number of conditional branches incorrect
system.switch_cpus.branchPred.condPredicted       149193                       # Number of conditional branches predicted
system.switch_cpus.branchPred.indirectHits        69304                       # Number of indirect target hits.
system.switch_cpus.branchPred.indirectLookups       130648                       # Number of indirect predictor lookups.
system.switch_cpus.branchPred.indirectMisses        61344                       # Number of indirect misses.
system.switch_cpus.branchPred.lookups          180939                       # Number of BP lookups
system.switch_cpus.branchPred.usedRAS           18241                       # Number of times the RAS was used to get a target.
system.switch_cpus.branchPredindirectMispredicted         4541                       # Number of mispredicted indirect branches.
system.switch_cpus.cc_regfile_reads            718105                       # number of cc regfile reads
system.switch_cpus.cc_regfile_writes           611292                       # number of cc regfile writes
system.switch_cpus.commit.amos                      0                       # Number of atomic instructions committed
system.switch_cpus.commit.branchMispredicts         7138                       # The number of times a branch was mispredicted
system.switch_cpus.commit.branches             106288                       # Number of branches committed
system.switch_cpus.commit.bw_lim_events       1538902                       # number cycles where commit BW limit reached
system.switch_cpus.commit.commitNonSpecStalls          405                       # The number of times commit has been forced to stall to communicate backwards
system.switch_cpus.commit.commitSquashedInsts       795614                       # The number of squashed insts skipped by commit
system.switch_cpus.commit.committedInsts     10000001                       # Number of instructions committed
system.switch_cpus.commit.committedOps       22374656                       # Number of ops (including micro ops) committed
system.switch_cpus.commit.committed_per_cycle::samples     17486455                       # Number of insts commited each cycle
system.switch_cpus.commit.committed_per_cycle::mean     1.279542                       # Number of insts commited each cycle
system.switch_cpus.commit.committed_per_cycle::stdev     2.541945                       # Number of insts commited each cycle
system.switch_cpus.commit.committed_per_cycle::underflows            0      0.00%      0.00% # Number of insts commited each cycle
system.switch_cpus.commit.committed_per_cycle::0     12774085     73.05%     73.05% # Number of insts commited each cycle
system.switch_cpus.commit.committed_per_cycle::1       719795      4.12%     77.17% # Number of insts commited each cycle
system.switch_cpus.commit.committed_per_cycle::2       837929      4.79%     81.96% # Number of insts commited each cycle
system.switch_cpus.commit.committed_per_cycle::3       282309      1.61%     83.57% # Number of insts commited each cycle
system.switch_cpus.commit.committed_per_cycle::4       554509      3.17%     86.75% # Number of insts commited each cycle
system.switch_cpus.commit.committed_per_cycle::5       260901      1.49%     88.24% # Number of insts commited each cycle
system.switch_cpus.commit.committed_per_cycle::6       327856      1.87%     90.11% # Number of insts commited each cycle
system.switch_cpus.commit.committed_per_cycle::7       190169      1.09%     91.20% # Number of insts commited each cycle
system.switch_cpus.commit.committed_per_cycle::8      1538902      8.80%    100.00% # Number of insts commited each cycle
system.switch_cpus.commit.committed_per_cycle::overflows            0      0.00%    100.00% # Number of insts commited each cycle
system.switch_cpus.commit.committed_per_cycle::min_value            0                       # Number of insts commited each cycle
system.switch_cpus.commit.committed_per_cycle::max_value            8                       # Number of insts commited each cycle
system.switch_cpus.commit.committed_per_cycle::total     17486455                       # Number of insts commited each cycle
system.switch_cpus.commit.fp_insts           20559192                       # Number of committed floating point instructions.
system.switch_cpus.commit.function_calls         8242                       # Number of function calls committed.
system.switch_cpus.commit.int_insts          10716167                       # Number of committed integer instructions.
system.switch_cpus.commit.loads               7506752                       # Number of loads committed
system.switch_cpus.commit.membars                   0                       # Number of memory barriers committed
system.switch_cpus.commit.op_class_0::No_OpClass         3248      0.01%      0.01% # Class of committed instruction
system.switch_cpus.commit.op_class_0::IntAlu      3440241     15.38%     15.39% # Class of committed instruction
system.switch_cpus.commit.op_class_0::IntMult          647      0.00%     15.39% # Class of committed instruction
system.switch_cpus.commit.op_class_0::IntDiv          133      0.00%     15.39% # Class of committed instruction
system.switch_cpus.commit.op_class_0::FloatAdd          604      0.00%     15.40% # Class of committed instruction
system.switch_cpus.commit.op_class_0::FloatCmp            0      0.00%     15.40% # Class of committed instruction
system.switch_cpus.commit.op_class_0::FloatCvt            0      0.00%     15.40% # Class of committed instruction
system.switch_cpus.commit.op_class_0::FloatMult            0      0.00%     15.40% # Class of committed instruction
system.switch_cpus.commit.op_class_0::FloatMultAcc            0      0.00%     15.40% # Class of committed instruction
system.switch_cpus.commit.op_class_0::FloatDiv            0      0.00%     15.40% # Class of committed instruction
system.switch_cpus.commit.op_class_0::FloatMisc            0      0.00%     15.40% # Class of committed instruction
system.switch_cpus.commit.op_class_0::FloatSqrt            0      0.00%     15.40% # Class of committed instruction
system.switch_cpus.commit.op_class_0::SimdAdd          746      0.00%     15.40% # Class of committed instruction
system.switch_cpus.commit.op_class_0::SimdAddAcc            0      0.00%     15.40% # Class of committed instruction
system.switch_cpus.commit.op_class_0::SimdAlu        55789      0.25%     15.65% # Class of committed instruction
system.switch_cpus.commit.op_class_0::SimdCmp            0      0.00%     15.65% # Class of committed instruction
system.switch_cpus.commit.op_class_0::SimdCvt         4810      0.02%     15.67% # Class of committed instruction
system.switch_cpus.commit.op_class_0::SimdMisc         4991      0.02%     15.69% # Class of committed instruction
system.switch_cpus.commit.op_class_0::SimdMult            0      0.00%     15.69% # Class of committed instruction
system.switch_cpus.commit.op_class_0::SimdMultAcc            0      0.00%     15.69% # Class of committed instruction
system.switch_cpus.commit.op_class_0::SimdShift           32      0.00%     15.69% # Class of committed instruction
system.switch_cpus.commit.op_class_0::SimdShiftAcc            0      0.00%     15.69% # Class of committed instruction
system.switch_cpus.commit.op_class_0::SimdDiv            0      0.00%     15.69% # Class of committed instruction
system.switch_cpus.commit.op_class_0::SimdSqrt            0      0.00%     15.69% # Class of committed instruction
system.switch_cpus.commit.op_class_0::SimdFloatAdd      5262290     23.52%     39.21% # Class of committed instruction
system.switch_cpus.commit.op_class_0::SimdFloatAlu            0      0.00%     39.21% # Class of committed instruction
system.switch_cpus.commit.op_class_0::SimdFloatCmp            0      0.00%     39.21% # Class of committed instruction
system.switch_cpus.commit.op_class_0::SimdFloatCvt            0      0.00%     39.21% # Class of committed instruction
system.switch_cpus.commit.op_class_0::SimdFloatDiv        10955      0.05%     39.26% # Class of committed instruction
system.switch_cpus.commit.op_class_0::SimdFloatMisc            0      0.00%     39.26% # Class of committed instruction
system.switch_cpus.commit.op_class_0::SimdFloatMult      3855430     17.23%     56.49% # Class of committed instruction
system.switch_cpus.commit.op_class_0::SimdFloatMultAcc            0      0.00%     56.49% # Class of committed instruction
system.switch_cpus.commit.op_class_0::SimdFloatSqrt            0      0.00%     56.49% # Class of committed instruction
system.switch_cpus.commit.op_class_0::SimdReduceAdd            0      0.00%     56.49% # Class of committed instruction
system.switch_cpus.commit.op_class_0::SimdReduceAlu            0      0.00%     56.49% # Class of committed instruction
system.switch_cpus.commit.op_class_0::SimdReduceCmp            0      0.00%     56.49% # Class of committed instruction
system.switch_cpus.commit.op_class_0::SimdFloatReduceAdd            0      0.00%     56.49% # Class of committed instruction
system.switch_cpus.commit.op_class_0::SimdFloatReduceCmp            0      0.00%     56.49% # Class of committed instruction
system.switch_cpus.commit.op_class_0::SimdAes            0      0.00%     56.49% # Class of committed instruction
system.switch_cpus.commit.op_class_0::SimdAesMix            0      0.00%     56.49% # Class of committed instruction
system.switch_cpus.commit.op_class_0::SimdSha1Hash            0      0.00%     56.49% # Class of committed instruction
system.switch_cpus.commit.op_class_0::SimdSha1Hash2            0      0.00%     56.49% # Class of committed instruction
system.switch_cpus.commit.op_class_0::SimdSha256Hash            0      0.00%     56.49% # Class of committed instruction
system.switch_cpus.commit.op_class_0::SimdSha256Hash2            0      0.00%     56.49% # Class of committed instruction
system.switch_cpus.commit.op_class_0::SimdShaSigma2            0      0.00%     56.49% # Class of committed instruction
system.switch_cpus.commit.op_class_0::SimdShaSigma3            0      0.00%     56.49% # Class of committed instruction
system.switch_cpus.commit.op_class_0::SimdPredAlu            0      0.00%     56.49% # Class of committed instruction
system.switch_cpus.commit.op_class_0::MemRead       756767      3.38%     59.87% # Class of committed instruction
system.switch_cpus.commit.op_class_0::MemWrite        77584      0.35%     60.22% # Class of committed instruction
system.switch_cpus.commit.op_class_0::FloatMemRead      6749985     30.17%     90.39% # Class of committed instruction
system.switch_cpus.commit.op_class_0::FloatMemWrite      2150404      9.61%    100.00% # Class of committed instruction
system.switch_cpus.commit.op_class_0::IprAccess            0      0.00%    100.00% # Class of committed instruction
system.switch_cpus.commit.op_class_0::InstPrefetch            0      0.00%    100.00% # Class of committed instruction
system.switch_cpus.commit.op_class_0::total     22374656                       # Class of committed instruction
system.switch_cpus.commit.refs                9734740                       # Number of memory references committed
system.switch_cpus.commit.swp_count                 0                       # Number of s/w prefetches committed
system.switch_cpus.commit.vec_insts                 0                       # Number of committed Vector instructions.
system.switch_cpus.committedInsts            10000001                       # Number of Instructions Simulated
system.switch_cpus.committedOps              22374656                       # Number of Ops (including micro ops) Simulated
system.switch_cpus.cpi                       1.771206                       # CPI: Cycles Per Instruction
system.switch_cpus.cpi_total                 1.771206                       # CPI: Total CPI of All Threads
system.switch_cpus.decode.BlockedCycles      13583019                       # Number of cycles decode is blocked
system.switch_cpus.decode.DecodedInsts       23452057                       # Number of instructions handled by decode
system.switch_cpus.decode.IdleCycles           840443                       # Number of cycles decode is idle
system.switch_cpus.decode.RunCycles           2536074                       # Number of cycles decode is running
system.switch_cpus.decode.SquashCycles          13737                       # Number of cycles decode is squashing
system.switch_cpus.decode.UnblockCycles        620937                       # Number of cycles decode is unblocking
system.switch_cpus.dtb.rdAccesses             7695302                       # TLB accesses on read requests
system.switch_cpus.dtb.rdMisses                  1939                       # TLB misses on read requests
system.switch_cpus.dtb.wrAccesses             2377517                       # TLB accesses on write requests
system.switch_cpus.dtb.wrMisses                   738                       # TLB misses on write requests
system.switch_cpus.fetch.Branches              180939                       # Number of branches that fetch encountered
system.switch_cpus.fetch.CacheLines           1122979                       # Number of cache lines fetched
system.switch_cpus.fetch.Cycles              16374200                       # Number of cycles fetch has run and was not squashing or blocked
system.switch_cpus.fetch.IcacheSquashes          2269                       # Number of outstanding Icache misses that were squashed
system.switch_cpus.fetch.IcacheWaitRetryStallCycles           83                       # Number of stall cycles due to full MSHR
system.switch_cpus.fetch.Insts               10753787                       # Number of instructions fetch has processed
system.switch_cpus.fetch.MiscStallCycles          271                       # Number of cycles fetch has spent waiting on interrupts, or bad addresses, or out of MSHRs
system.switch_cpus.fetch.PendingTrapStallCycles         1266                       # Number of stall cycles due to pending traps
system.switch_cpus.fetch.SquashCycles           27474                       # Number of cycles fetch has spent squashing
system.switch_cpus.fetch.branchRate          0.010216                       # Number of branch fetches per cycle
system.switch_cpus.fetch.icacheStallCycles      1204990                       # Number of cycles fetch is stalled on an Icache miss
system.switch_cpus.fetch.predictedBranches        87545                       # Number of branches that fetch has predicted taken
system.switch_cpus.fetch.rate                0.607145                       # Number of inst fetches per cycle
system.switch_cpus.fetch.rateDist::samples     17594547                       # Number of instructions fetched each cycle (Total)
system.switch_cpus.fetch.rateDist::mean      1.349245                       # Number of instructions fetched each cycle (Total)
system.switch_cpus.fetch.rateDist::stdev     2.854926                       # Number of instructions fetched each cycle (Total)
system.switch_cpus.fetch.rateDist::underflows            0      0.00%      0.00% # Number of instructions fetched each cycle (Total)
system.switch_cpus.fetch.rateDist::0         14046196     79.83%     79.83% # Number of instructions fetched each cycle (Total)
system.switch_cpus.fetch.rateDist::1           109059      0.62%     80.45% # Number of instructions fetched each cycle (Total)
system.switch_cpus.fetch.rateDist::2           211361      1.20%     81.65% # Number of instructions fetched each cycle (Total)
system.switch_cpus.fetch.rateDist::3           177266      1.01%     82.66% # Number of instructions fetched each cycle (Total)
system.switch_cpus.fetch.rateDist::4           187339      1.06%     83.73% # Number of instructions fetched each cycle (Total)
system.switch_cpus.fetch.rateDist::5           148298      0.84%     84.57% # Number of instructions fetched each cycle (Total)
system.switch_cpus.fetch.rateDist::6           224654      1.28%     85.85% # Number of instructions fetched each cycle (Total)
system.switch_cpus.fetch.rateDist::7            85993      0.49%     86.33% # Number of instructions fetched each cycle (Total)
system.switch_cpus.fetch.rateDist::8          2404381     13.67%    100.00% # Number of instructions fetched each cycle (Total)
system.switch_cpus.fetch.rateDist::overflows            0      0.00%    100.00% # Number of instructions fetched each cycle (Total)
system.switch_cpus.fetch.rateDist::min_value            0                       # Number of instructions fetched each cycle (Total)
system.switch_cpus.fetch.rateDist::max_value            8                       # Number of instructions fetched each cycle (Total)
system.switch_cpus.fetch.rateDist::total     17594547                       # Number of instructions fetched each cycle (Total)
system.switch_cpus.fp_regfile_reads          34698118                       # number of floating regfile reads
system.switch_cpus.fp_regfile_writes         18491490                       # number of floating regfile writes
system.switch_cpus.idleCycles                  117515                       # Total number of cycles that the CPU has spent unscheduled due to idling
system.switch_cpus.iew.branchMispredicts         9631                       # Number of branch mispredicts detected at execute
system.switch_cpus.iew.exec_branches           138458                       # Number of branches executed
system.switch_cpus.iew.exec_nop                     0                       # number of nop insts executed
system.switch_cpus.iew.exec_rate             1.313356                       # Inst execution rate
system.switch_cpus.iew.exec_refs             10215597                       # number of memory reference insts executed
system.switch_cpus.iew.exec_stores            2377517                       # Number of stores executed
system.switch_cpus.iew.exec_swp                     0                       # number of swp insts executed
system.switch_cpus.iew.iewBlockCycles          365217                       # Number of cycles IEW is blocking
system.switch_cpus.iew.iewDispLoadInsts       7711168                       # Number of dispatched load instructions
system.switch_cpus.iew.iewDispNonSpecInsts           11                       # Number of dispatched non-speculative instructions
system.switch_cpus.iew.iewDispSquashedInsts          447                       # Number of squashed instructions skipped by dispatch
system.switch_cpus.iew.iewDispStoreInsts      2445557                       # Number of dispatched store instructions
system.switch_cpus.iew.iewDispatchedInsts     23288005                       # Number of instructions dispatched to IQ
system.switch_cpus.iew.iewExecLoadInsts       7838080                       # Number of load instructions executed
system.switch_cpus.iew.iewExecSquashedInsts        19568                       # Number of squashed instructions skipped in execute
system.switch_cpus.iew.iewExecutedInsts      23262237                       # Number of executed instructions
system.switch_cpus.iew.iewIQFullEvents           3521                       # Number of times the IQ has become full, causing a stall
system.switch_cpus.iew.iewIdleCycles                0                       # Number of cycles IEW is idle
system.switch_cpus.iew.iewLSQFullEvents       4470157                       # Number of times the LSQ has become full, causing a stall
system.switch_cpus.iew.iewSquashCycles          13737                       # Number of cycles IEW is squashing
system.switch_cpus.iew.iewUnblockCycles       4479851                       # Number of cycles IEW is unblocking
system.switch_cpus.iew.lsq.thread0.blockedLoads            0                       # Number of blocked loads due to partial load-store forwarding
system.switch_cpus.iew.lsq.thread0.cacheBlocked        27309                       # Number of times an access to memory failed due to the cache being blocked
system.switch_cpus.iew.lsq.thread0.forwLoads       545971                       # Number of loads that had data forwarded from stores
system.switch_cpus.iew.lsq.thread0.ignoredResponses           84                       # Number of memory responses ignored because the instruction is squashed
system.switch_cpus.iew.lsq.thread0.invAddrLoads            0                       # Number of loads ignored due to an invalid address
system.switch_cpus.iew.lsq.thread0.invAddrSwpfs            0                       # Number of software prefetches ignored due to an invalid address
system.switch_cpus.iew.lsq.thread0.memOrderViolation          308                       # Number of memory ordering violations
system.switch_cpus.iew.lsq.thread0.rescheduledLoads            0                       # Number of loads that were rescheduled
system.switch_cpus.iew.lsq.thread0.squashedLoads       204391                       # Number of loads squashed
system.switch_cpus.iew.lsq.thread0.squashedStores       217565                       # Number of stores squashed
system.switch_cpus.iew.memOrderViolationEvents          308                       # Number of memory order violations
system.switch_cpus.iew.predictedNotTakenIncorrect         7866                       # Number of branches that were predicted not taken incorrectly
system.switch_cpus.iew.predictedTakenIncorrect         1765                       # Number of branches that were predicted taken incorrectly
system.switch_cpus.iew.wb_consumers          28935354                       # num instructions consuming a value
system.switch_cpus.iew.wb_count              23049760                       # cumulative count of insts written-back
system.switch_cpus.iew.wb_fanout             0.606434                       # average fanout of values written-back
system.switch_cpus.iew.wb_producers          17547380                       # num instructions producing a value
system.switch_cpus.iew.wb_rate               1.301359                       # insts written-back per cycle
system.switch_cpus.iew.wb_sent               23106516                       # cumulative count of insts sent to commit
system.switch_cpus.int_regfile_reads         21965641                       # number of integer regfile reads
system.switch_cpus.int_regfile_writes         2042326                       # number of integer regfile writes
system.switch_cpus.ipc                       0.564587                       # IPC: Instructions Per Cycle
system.switch_cpus.ipc_total                 0.564587                       # IPC: Total IPC of All Threads
system.switch_cpus.iq.FU_type_0::No_OpClass        55717      0.24%      0.24% # Type of FU issued
system.switch_cpus.iq.FU_type_0::IntAlu       3802729     16.33%     16.57% # Type of FU issued
system.switch_cpus.iq.FU_type_0::IntMult          651      0.00%     16.58% # Type of FU issued
system.switch_cpus.iq.FU_type_0::IntDiv           140      0.00%     16.58% # Type of FU issued
system.switch_cpus.iq.FU_type_0::FloatAdd         3672      0.02%     16.59% # Type of FU issued
system.switch_cpus.iq.FU_type_0::FloatCmp            0      0.00%     16.59% # Type of FU issued
system.switch_cpus.iq.FU_type_0::FloatCvt            0      0.00%     16.59% # Type of FU issued
system.switch_cpus.iq.FU_type_0::FloatMult            0      0.00%     16.59% # Type of FU issued
system.switch_cpus.iq.FU_type_0::FloatMultAcc            0      0.00%     16.59% # Type of FU issued
system.switch_cpus.iq.FU_type_0::FloatDiv            0      0.00%     16.59% # Type of FU issued
system.switch_cpus.iq.FU_type_0::FloatMisc            0      0.00%     16.59% # Type of FU issued
system.switch_cpus.iq.FU_type_0::FloatSqrt            0      0.00%     16.59% # Type of FU issued
system.switch_cpus.iq.FU_type_0::SimdAdd          802      0.00%     16.60% # Type of FU issued
system.switch_cpus.iq.FU_type_0::SimdAddAcc            0      0.00%     16.60% # Type of FU issued
system.switch_cpus.iq.FU_type_0::SimdAlu        56699      0.24%     16.84% # Type of FU issued
system.switch_cpus.iq.FU_type_0::SimdCmp            0      0.00%     16.84% # Type of FU issued
system.switch_cpus.iq.FU_type_0::SimdCvt         5016      0.02%     16.86% # Type of FU issued
system.switch_cpus.iq.FU_type_0::SimdMisc         5123      0.02%     16.88% # Type of FU issued
system.switch_cpus.iq.FU_type_0::SimdMult            0      0.00%     16.88% # Type of FU issued
system.switch_cpus.iq.FU_type_0::SimdMultAcc            0      0.00%     16.88% # Type of FU issued
system.switch_cpus.iq.FU_type_0::SimdShift           77      0.00%     16.88% # Type of FU issued
system.switch_cpus.iq.FU_type_0::SimdShiftAcc            0      0.00%     16.88% # Type of FU issued
system.switch_cpus.iq.FU_type_0::SimdDiv            0      0.00%     16.88% # Type of FU issued
system.switch_cpus.iq.FU_type_0::SimdSqrt            0      0.00%     16.88% # Type of FU issued
system.switch_cpus.iq.FU_type_0::SimdFloatAdd      5262561     22.60%     39.49% # Type of FU issued
system.switch_cpus.iq.FU_type_0::SimdFloatAlu            0      0.00%     39.49% # Type of FU issued
system.switch_cpus.iq.FU_type_0::SimdFloatCmp            0      0.00%     39.49% # Type of FU issued
system.switch_cpus.iq.FU_type_0::SimdFloatCvt            1      0.00%     39.49% # Type of FU issued
system.switch_cpus.iq.FU_type_0::SimdFloatDiv        10955      0.05%     39.53% # Type of FU issued
system.switch_cpus.iq.FU_type_0::SimdFloatMisc            0      0.00%     39.53% # Type of FU issued
system.switch_cpus.iq.FU_type_0::SimdFloatMult      3855557     16.56%     56.09% # Type of FU issued
system.switch_cpus.iq.FU_type_0::SimdFloatMultAcc            0      0.00%     56.09% # Type of FU issued
system.switch_cpus.iq.FU_type_0::SimdFloatSqrt            0      0.00%     56.09% # Type of FU issued
system.switch_cpus.iq.FU_type_0::SimdReduceAdd            0      0.00%     56.09% # Type of FU issued
system.switch_cpus.iq.FU_type_0::SimdReduceAlu            0      0.00%     56.09% # Type of FU issued
system.switch_cpus.iq.FU_type_0::SimdReduceCmp            0      0.00%     56.09% # Type of FU issued
system.switch_cpus.iq.FU_type_0::SimdFloatReduceAdd            0      0.00%     56.09% # Type of FU issued
system.switch_cpus.iq.FU_type_0::SimdFloatReduceCmp            0      0.00%     56.09% # Type of FU issued
system.switch_cpus.iq.FU_type_0::SimdAes            0      0.00%     56.09% # Type of FU issued
system.switch_cpus.iq.FU_type_0::SimdAesMix            0      0.00%     56.09% # Type of FU issued
system.switch_cpus.iq.FU_type_0::SimdSha1Hash            0      0.00%     56.09% # Type of FU issued
system.switch_cpus.iq.FU_type_0::SimdSha1Hash2            0      0.00%     56.09% # Type of FU issued
system.switch_cpus.iq.FU_type_0::SimdSha256Hash            0      0.00%     56.09% # Type of FU issued
system.switch_cpus.iq.FU_type_0::SimdSha256Hash2            0      0.00%     56.09% # Type of FU issued
system.switch_cpus.iq.FU_type_0::SimdShaSigma2            0      0.00%     56.09% # Type of FU issued
system.switch_cpus.iq.FU_type_0::SimdShaSigma3            0      0.00%     56.09% # Type of FU issued
system.switch_cpus.iq.FU_type_0::SimdPredAlu            0      0.00%     56.09% # Type of FU issued
system.switch_cpus.iq.FU_type_0::MemRead       898261      3.86%     59.95% # Type of FU issued
system.switch_cpus.iq.FU_type_0::MemWrite       131266      0.56%     60.52% # Type of FU issued
system.switch_cpus.iq.FU_type_0::FloatMemRead      6944972     29.83%     90.35% # Type of FU issued
system.switch_cpus.iq.FU_type_0::FloatMemWrite      2247607      9.65%    100.00% # Type of FU issued
system.switch_cpus.iq.FU_type_0::IprAccess            0      0.00%    100.00% # Type of FU issued
system.switch_cpus.iq.FU_type_0::InstPrefetch            0      0.00%    100.00% # Type of FU issued
system.switch_cpus.iq.FU_type_0::total       23281806                       # Type of FU issued
system.switch_cpus.iq.fp_alu_accesses        21763804                       # Number of floating point alu accesses
system.switch_cpus.iq.fp_inst_queue_reads     42620516                       # Number of floating instruction queue reads
system.switch_cpus.iq.fp_inst_queue_wakeup_accesses     20741058                       # Number of floating instruction queue wakeup accesses
system.switch_cpus.iq.fp_inst_queue_writes     21030413                       # Number of floating instruction queue writes
system.switch_cpus.iq.fu_busy_cnt             1021794                       # FU busy when requested
system.switch_cpus.iq.fu_busy_rate           0.043888                       # FU busy rate (busy events/executed inst)
system.switch_cpus.iq.fu_full::No_OpClass            0      0.00%      0.00% # attempts to use FU when none available
system.switch_cpus.iq.fu_full::IntAlu           13471      1.32%      1.32% # attempts to use FU when none available
system.switch_cpus.iq.fu_full::IntMult              0      0.00%      1.32% # attempts to use FU when none available
system.switch_cpus.iq.fu_full::IntDiv               0      0.00%      1.32% # attempts to use FU when none available
system.switch_cpus.iq.fu_full::FloatAdd             0      0.00%      1.32% # attempts to use FU when none available
system.switch_cpus.iq.fu_full::FloatCmp             0      0.00%      1.32% # attempts to use FU when none available
system.switch_cpus.iq.fu_full::FloatCvt             0      0.00%      1.32% # attempts to use FU when none available
system.switch_cpus.iq.fu_full::FloatMult            0      0.00%      1.32% # attempts to use FU when none available
system.switch_cpus.iq.fu_full::FloatMultAcc            0      0.00%      1.32% # attempts to use FU when none available
system.switch_cpus.iq.fu_full::FloatDiv             0      0.00%      1.32% # attempts to use FU when none available
system.switch_cpus.iq.fu_full::FloatMisc            0      0.00%      1.32% # attempts to use FU when none available
system.switch_cpus.iq.fu_full::FloatSqrt            0      0.00%      1.32% # attempts to use FU when none available
system.switch_cpus.iq.fu_full::SimdAdd              0      0.00%      1.32% # attempts to use FU when none available
system.switch_cpus.iq.fu_full::SimdAddAcc            0      0.00%      1.32% # attempts to use FU when none available
system.switch_cpus.iq.fu_full::SimdAlu            708      0.07%      1.39% # attempts to use FU when none available
system.switch_cpus.iq.fu_full::SimdCmp              0      0.00%      1.39% # attempts to use FU when none available
system.switch_cpus.iq.fu_full::SimdCvt              0      0.00%      1.39% # attempts to use FU when none available
system.switch_cpus.iq.fu_full::SimdMisc           363      0.04%      1.42% # attempts to use FU when none available
system.switch_cpus.iq.fu_full::SimdMult             0      0.00%      1.42% # attempts to use FU when none available
system.switch_cpus.iq.fu_full::SimdMultAcc            0      0.00%      1.42% # attempts to use FU when none available
system.switch_cpus.iq.fu_full::SimdShift            2      0.00%      1.42% # attempts to use FU when none available
system.switch_cpus.iq.fu_full::SimdShiftAcc            0      0.00%      1.42% # attempts to use FU when none available
system.switch_cpus.iq.fu_full::SimdDiv              0      0.00%      1.42% # attempts to use FU when none available
system.switch_cpus.iq.fu_full::SimdSqrt             0      0.00%      1.42% # attempts to use FU when none available
system.switch_cpus.iq.fu_full::SimdFloatAdd       117132     11.46%     12.89% # attempts to use FU when none available
system.switch_cpus.iq.fu_full::SimdFloatAlu            0      0.00%     12.89% # attempts to use FU when none available
system.switch_cpus.iq.fu_full::SimdFloatCmp            0      0.00%     12.89% # attempts to use FU when none available
system.switch_cpus.iq.fu_full::SimdFloatCvt            0      0.00%     12.89% # attempts to use FU when none available
system.switch_cpus.iq.fu_full::SimdFloatDiv            0      0.00%     12.89% # attempts to use FU when none available
system.switch_cpus.iq.fu_full::SimdFloatMisc            0      0.00%     12.89% # attempts to use FU when none available
system.switch_cpus.iq.fu_full::SimdFloatMult       248598     24.33%     37.22% # attempts to use FU when none available
system.switch_cpus.iq.fu_full::SimdFloatMultAcc            0      0.00%     37.22% # attempts to use FU when none available
system.switch_cpus.iq.fu_full::SimdFloatSqrt            0      0.00%     37.22% # attempts to use FU when none available
system.switch_cpus.iq.fu_full::SimdReduceAdd            0      0.00%     37.22% # attempts to use FU when none available
system.switch_cpus.iq.fu_full::SimdReduceAlu            0      0.00%     37.22% # attempts to use FU when none available
system.switch_cpus.iq.fu_full::SimdReduceCmp            0      0.00%     37.22% # attempts to use FU when none available
system.switch_cpus.iq.fu_full::SimdFloatReduceAdd            0      0.00%     37.22% # attempts to use FU when none available
system.switch_cpus.iq.fu_full::SimdFloatReduceCmp            0      0.00%     37.22% # attempts to use FU when none available
system.switch_cpus.iq.fu_full::SimdAes              0      0.00%     37.22% # attempts to use FU when none available
system.switch_cpus.iq.fu_full::SimdAesMix            0      0.00%     37.22% # attempts to use FU when none available
system.switch_cpus.iq.fu_full::SimdSha1Hash            0      0.00%     37.22% # attempts to use FU when none available
system.switch_cpus.iq.fu_full::SimdSha1Hash2            0      0.00%     37.22% # attempts to use FU when none available
system.switch_cpus.iq.fu_full::SimdSha256Hash            0      0.00%     37.22% # attempts to use FU when none available
system.switch_cpus.iq.fu_full::SimdSha256Hash2            0      0.00%     37.22% # attempts to use FU when none available
system.switch_cpus.iq.fu_full::SimdShaSigma2            0      0.00%     37.22% # attempts to use FU when none available
system.switch_cpus.iq.fu_full::SimdShaSigma3            0      0.00%     37.22% # attempts to use FU when none available
system.switch_cpus.iq.fu_full::SimdPredAlu            0      0.00%     37.22% # attempts to use FU when none available
system.switch_cpus.iq.fu_full::MemRead          86112      8.43%     45.64% # attempts to use FU when none available
system.switch_cpus.iq.fu_full::MemWrite         14709      1.44%     47.08% # attempts to use FU when none available
system.switch_cpus.iq.fu_full::FloatMemRead       482149     47.19%     94.27% # attempts to use FU when none available
system.switch_cpus.iq.fu_full::FloatMemWrite        58550      5.73%    100.00% # attempts to use FU when none available
system.switch_cpus.iq.fu_full::IprAccess            0      0.00%    100.00% # attempts to use FU when none available
system.switch_cpus.iq.fu_full::InstPrefetch            0      0.00%    100.00% # attempts to use FU when none available
system.switch_cpus.iq.int_alu_accesses        2484079                       # Number of integer alu accesses
system.switch_cpus.iq.int_inst_queue_reads     22563658                       # Number of integer instruction queue reads
system.switch_cpus.iq.int_inst_queue_wakeup_accesses      2308702                       # Number of integer instruction queue wakeup accesses
system.switch_cpus.iq.int_inst_queue_writes      3171193                       # Number of integer instruction queue writes
system.switch_cpus.iq.iqInstsAdded           23283169                       # Number of instructions added to the IQ (excludes non-spec)
system.switch_cpus.iq.iqInstsIssued          23281806                       # Number of instructions issued
system.switch_cpus.iq.iqNonSpecInstsAdded         4836                       # Number of non-speculative instructions added to the IQ
system.switch_cpus.iq.iqSquashedInstsExamined       913304                       # Number of squashed instructions iterated over during squash; mainly for profiling
system.switch_cpus.iq.iqSquashedInstsIssued         4222                       # Number of squashed instructions issued
system.switch_cpus.iq.iqSquashedNonSpecRemoved         4431                       # Number of squashed non-spec instructions that were removed
system.switch_cpus.iq.iqSquashedOperandsExamined       617380                       # Number of squashed operands that are examined and possibly removed from graph
system.switch_cpus.iq.issued_per_cycle::samples     17594547                       # Number of insts issued each cycle
system.switch_cpus.iq.issued_per_cycle::mean     1.323240                       # Number of insts issued each cycle
system.switch_cpus.iq.issued_per_cycle::stdev     2.313918                       # Number of insts issued each cycle
system.switch_cpus.iq.issued_per_cycle::underflows            0      0.00%      0.00% # Number of insts issued each cycle
system.switch_cpus.iq.issued_per_cycle::0     12134661     68.97%     68.97% # Number of insts issued each cycle
system.switch_cpus.iq.issued_per_cycle::1       711038      4.04%     73.01% # Number of insts issued each cycle
system.switch_cpus.iq.issued_per_cycle::2       732676      4.16%     77.17% # Number of insts issued each cycle
system.switch_cpus.iq.issued_per_cycle::3       660194      3.75%     80.93% # Number of insts issued each cycle
system.switch_cpus.iq.issued_per_cycle::4       893554      5.08%     86.00% # Number of insts issued each cycle
system.switch_cpus.iq.issued_per_cycle::5       700138      3.98%     89.98% # Number of insts issued each cycle
system.switch_cpus.iq.issued_per_cycle::6       783867      4.46%     94.44% # Number of insts issued each cycle
system.switch_cpus.iq.issued_per_cycle::7       480626      2.73%     97.17% # Number of insts issued each cycle
system.switch_cpus.iq.issued_per_cycle::8       497793      2.83%    100.00% # Number of insts issued each cycle
system.switch_cpus.iq.issued_per_cycle::overflows            0      0.00%    100.00% # Number of insts issued each cycle
system.switch_cpus.iq.issued_per_cycle::min_value            0                       # Number of insts issued each cycle
system.switch_cpus.iq.issued_per_cycle::max_value            8                       # Number of insts issued each cycle
system.switch_cpus.iq.issued_per_cycle::total     17594547                       # Number of insts issued each cycle
system.switch_cpus.iq.rate                   1.314461                       # Inst issue rate
system.switch_cpus.iq.vec_alu_accesses              0                       # Number of vector alu accesses
system.switch_cpus.iq.vec_inst_queue_reads            0                       # Number of vector instruction queue reads
system.switch_cpus.iq.vec_inst_queue_wakeup_accesses            0                       # Number of vector instruction queue wakeup accesses
system.switch_cpus.iq.vec_inst_queue_writes            0                       # Number of vector instruction queue writes
system.switch_cpus.itb.rdAccesses                   0                       # TLB accesses on read requests
system.switch_cpus.itb.rdMisses                     0                       # TLB misses on read requests
system.switch_cpus.itb.wrAccesses             1123197                       # TLB accesses on write requests
system.switch_cpus.itb.wrMisses                   298                       # TLB misses on write requests
system.switch_cpus.memDep0.conflictingLoads        21092                       # Number of conflicting loads.
system.switch_cpus.memDep0.conflictingStores       110983                       # Number of conflicting stores.
system.switch_cpus.memDep0.insertedLoads      7711168                       # Number of loads inserted to the mem dependence unit.
system.switch_cpus.memDep0.insertedStores      2445557                       # Number of stores inserted to the mem dependence unit.
system.switch_cpus.misc_regfile_reads        10725129                       # number of misc regfile reads
system.switch_cpus.misc_regfile_writes              1                       # number of misc regfile writes
system.switch_cpus.numCycles                 17712062                       # number of cpu cycles simulated
system.switch_cpus.numWorkItemsCompleted            0                       # number of work items this cpu completed
system.switch_cpus.numWorkItemsStarted              0                       # number of work items this cpu started
system.switch_cpus.rename.BlockCycles         4910639                       # Number of cycles rename is blocking
system.switch_cpus.rename.CommittedMaps      20443121                       # Number of HB maps that are committed
system.switch_cpus.rename.IQFullEvents         245700                       # Number of times rename has blocked due to IQ full
system.switch_cpus.rename.IdleCycles          1120158                       # Number of cycles rename is idle
system.switch_cpus.rename.LQFullEvents        3011593                       # Number of times rename has blocked due to LQ full
system.switch_cpus.rename.ROBFullEvents          9996                       # Number of times rename has blocked due to ROB full
system.switch_cpus.rename.RenameLookups      68464140                       # Number of register rename lookups that rename has made
system.switch_cpus.rename.RenamedInsts       23369212                       # Number of instructions processed by rename
system.switch_cpus.rename.RenamedOperands     21368755                       # Number of destination operands rename has renamed
system.switch_cpus.rename.RunCycles           2866454                       # Number of cycles rename is running
system.switch_cpus.rename.SQFullEvents        5449952                       # Number of times rename has blocked due to SQ full
system.switch_cpus.rename.SquashCycles          13737                       # Number of cycles rename is squashing
system.switch_cpus.rename.UnblockCycles       8683108                       # Number of cycles rename is unblocking
system.switch_cpus.rename.UndoneMaps           925587                       # Number of HB maps that are undone due to squashing
system.switch_cpus.rename.fp_rename_lookups     34763758                       # Number of floating rename lookups
system.switch_cpus.rename.int_rename_lookups     22136699                       # Number of integer rename lookups
system.switch_cpus.rename.serializeStallCycles          114                       # count of cycles rename stalled for serializing inst
system.switch_cpus.rename.serializingInsts           13                       # count of serializing insts renamed
system.switch_cpus.rename.skidInsts           3788764                       # count of insts added to the skid buffer
system.switch_cpus.rename.tempSerializingInsts           13                       # count of temporary serializing insts renamed
system.switch_cpus.rob.rob_reads             39034623                       # The number of ROB reads
system.switch_cpus.rob.rob_writes            46448998                       # The number of ROB writes
system.switch_cpus.timesIdled                    1341                       # Number of times that the entire CPU went into an idle state and unscheduled itself
system.tol2bus.snoop_filter.hit_multi_requests           11                       # Number of requests hitting in the snoop filter with multiple (>1) holders of the requested data.
system.tol2bus.snoop_filter.hit_multi_snoops            1                       # Number of snoops hitting in the snoop filter with multiple (>1) holders of the requested data.
system.tol2bus.snoop_filter.hit_single_requests       119287                       # Number of requests hitting in the snoop filter with a single holder of the requested data.
system.tol2bus.snoop_filter.hit_single_snoops        36391                       # Number of snoops hitting in the snoop filter with a single holder of the requested data.
system.tol2bus.snoop_filter.tot_requests       240122                       # Total number of requests made to the snoop filter.
system.tol2bus.snoop_filter.tot_snoops          36392                       # Total number of snoops made to the snoop filter.
system.membus.pwrStateResidencyTicks::UNDEFINED 371669950924500                       # Cumulative time (in ticks) in various power states
system.membus.trans_dist::ReadResp              77810                       # Transaction distribution
system.membus.trans_dist::WritebackDirty        34474                       # Transaction distribution
system.membus.trans_dist::CleanEvict            75183                       # Transaction distribution
system.membus.trans_dist::ReadExReq             34497                       # Transaction distribution
system.membus.trans_dist::ReadExResp            34497                       # Transaction distribution
system.membus.trans_dist::ReadSharedReq         77810                       # Transaction distribution
system.membus.pkt_count_system.l2.mem_side::system.mem_ctrls.port       334271                       # Packet count per connected master and slave (bytes)
system.membus.pkt_count_system.l2.mem_side::total       334271                       # Packet count per connected master and slave (bytes)
system.membus.pkt_count::total                 334271                       # Packet count per connected master and slave (bytes)
system.membus.pkt_size_system.l2.mem_side::system.mem_ctrls.port      9393984                       # Cumulative packet size per connected master and slave (bytes)
system.membus.pkt_size_system.l2.mem_side::total      9393984                       # Cumulative packet size per connected master and slave (bytes)
system.membus.pkt_size::total                 9393984                       # Cumulative packet size per connected master and slave (bytes)
system.membus.snoops                                0                       # Total snoops (count)
system.membus.snoopTraffic                          0                       # Total snoop traffic (bytes)
system.membus.snoop_fanout::samples            112307                       # Request fanout histogram
system.membus.snoop_fanout::mean                    0                       # Request fanout histogram
system.membus.snoop_fanout::stdev                   0                       # Request fanout histogram
system.membus.snoop_fanout::underflows              0      0.00%      0.00% # Request fanout histogram
system.membus.snoop_fanout::0                  112307    100.00%    100.00% # Request fanout histogram
system.membus.snoop_fanout::1                       0      0.00%    100.00% # Request fanout histogram
system.membus.snoop_fanout::overflows               0      0.00%    100.00% # Request fanout histogram
system.membus.snoop_fanout::min_value               0                       # Request fanout histogram
system.membus.snoop_fanout::max_value               0                       # Request fanout histogram
system.membus.snoop_fanout::total              112307                       # Request fanout histogram
system.membus.reqLayer2.occupancy           379299000                       # Layer occupancy (ticks)
system.membus.reqLayer2.utilization               4.3                       # Layer utilization (%)
system.membus.respLayer1.occupancy          620854750                       # Layer occupancy (ticks)
system.membus.respLayer1.utilization              7.0                       # Layer utilization (%)
system.switch_cpus.pwrStateResidencyTicks::OFF   8856042000                       # Cumulative time (in ticks) in various power states
system.switch_cpus.dtb.walker.pwrStateResidencyTicks::UNDEFINED 371669950924500                       # Cumulative time (in ticks) in various power states
system.switch_cpus.itb.walker.pwrStateResidencyTicks::UNDEFINED 371669950924500                       # Cumulative time (in ticks) in various power states
system.tol2bus.pwrStateResidencyTicks::UNDEFINED 371669950924500                       # Cumulative time (in ticks) in various power states
system.tol2bus.trans_dist::ReadResp             85181                       # Transaction distribution
system.tol2bus.trans_dist::WritebackDirty        71330                       # Transaction distribution
system.tol2bus.trans_dist::WritebackClean         1789                       # Transaction distribution
system.tol2bus.trans_dist::CleanEvict          168631                       # Transaction distribution
system.tol2bus.trans_dist::UpgradeReq               5                       # Transaction distribution
system.tol2bus.trans_dist::UpgradeResp              5                       # Transaction distribution
system.tol2bus.trans_dist::ReadExReq            35647                       # Transaction distribution
system.tol2bus.trans_dist::ReadExResp           35647                       # Transaction distribution
system.tol2bus.trans_dist::ReadCleanReq          2306                       # Transaction distribution
system.tol2bus.trans_dist::ReadSharedReq        82877                       # Transaction distribution
system.tol2bus.pkt_count_system.cpu.icache.mem_side::system.l2.cpu_side         6396                       # Packet count per connected master and slave (bytes)
system.tol2bus.pkt_count_system.cpu.dcache.mem_side::system.l2.cpu_side       354554                       # Packet count per connected master and slave (bytes)
system.tol2bus.pkt_count::total                360950                       # Packet count per connected master and slave (bytes)
system.tol2bus.pkt_size_system.cpu.icache.mem_side::system.l2.cpu_side       261760                       # Cumulative packet size per connected master and slave (bytes)
system.tol2bus.pkt_size_system.cpu.dcache.mem_side::system.l2.cpu_side      9944192                       # Cumulative packet size per connected master and slave (bytes)
system.tol2bus.pkt_size::total               10205952                       # Cumulative packet size per connected master and slave (bytes)
system.tol2bus.snoops                          122468                       # Total snoops (count)
system.tol2bus.snoopTraffic                   2206656                       # Total snoop traffic (bytes)
system.tol2bus.snoop_fanout::samples           243298                       # Request fanout histogram
system.tol2bus.snoop_fanout::mean            0.149627                       # Request fanout histogram
system.tol2bus.snoop_fanout::stdev           0.356718                       # Request fanout histogram
system.tol2bus.snoop_fanout::underflows             0      0.00%      0.00% # Request fanout histogram
system.tol2bus.snoop_fanout::0                 206895     85.04%     85.04% # Request fanout histogram
system.tol2bus.snoop_fanout::1                  36402     14.96%    100.00% # Request fanout histogram
system.tol2bus.snoop_fanout::2                      1      0.00%    100.00% # Request fanout histogram
system.tol2bus.snoop_fanout::3                      0      0.00%    100.00% # Request fanout histogram
system.tol2bus.snoop_fanout::4                      0      0.00%    100.00% # Request fanout histogram
system.tol2bus.snoop_fanout::overflows              0      0.00%    100.00% # Request fanout histogram
system.tol2bus.snoop_fanout::min_value              0                       # Request fanout histogram
system.tol2bus.snoop_fanout::max_value              2                       # Request fanout histogram
system.tol2bus.snoop_fanout::total             243298                       # Request fanout histogram
system.tol2bus.reqLayer0.occupancy          158703000                       # Layer occupancy (ticks)
system.tol2bus.reqLayer0.utilization              1.8                       # Layer utilization (%)
system.tol2bus.respLayer1.occupancy         177779500                       # Layer occupancy (ticks)
system.tol2bus.respLayer1.utilization             2.0                       # Layer utilization (%)
system.tol2bus.respLayer0.occupancy           3456000                       # Layer occupancy (ticks)
system.tol2bus.respLayer0.utilization             0.0                       # Layer utilization (%)
system.voltage_domain.voltage                       1                       # Voltage in Volts
system.clk_domain.clock                          1000                       # Clock period in ticks
system.l2.pwrStateResidencyTicks::UNDEFINED 371669950924500                       # Cumulative time (in ticks) in various power states
system.l2.demand_hits::.switch_cpus.inst          890                       # number of demand (read+write) hits
system.l2.demand_hits::.switch_cpus.data         7626                       # number of demand (read+write) hits
system.l2.demand_hits::total                     8516                       # number of demand (read+write) hits
system.l2.overall_hits::.switch_cpus.inst          890                       # number of overall hits
system.l2.overall_hits::.switch_cpus.data         7626                       # number of overall hits
system.l2.overall_hits::total                    8516                       # number of overall hits
system.l2.demand_misses::.cpu.inst                  2                       # number of demand (read+write) misses
system.l2.demand_misses::.cpu.data                  4                       # number of demand (read+write) misses
system.l2.demand_misses::.switch_cpus.inst         1409                       # number of demand (read+write) misses
system.l2.demand_misses::.switch_cpus.data       110894                       # number of demand (read+write) misses
system.l2.demand_misses::total                 112309                       # number of demand (read+write) misses
system.l2.overall_misses::.cpu.inst                 2                       # number of overall misses
system.l2.overall_misses::.cpu.data                 4                       # number of overall misses
system.l2.overall_misses::.switch_cpus.inst         1409                       # number of overall misses
system.l2.overall_misses::.switch_cpus.data       110894                       # number of overall misses
system.l2.overall_misses::total                112309                       # number of overall misses
system.l2.demand_miss_latency::.switch_cpus.inst    113071000                       # number of demand (read+write) miss cycles
system.l2.demand_miss_latency::.switch_cpus.data  11263266500                       # number of demand (read+write) miss cycles
system.l2.demand_miss_latency::total      11376337500                       # number of demand (read+write) miss cycles
system.l2.overall_miss_latency::.switch_cpus.inst    113071000                       # number of overall miss cycles
system.l2.overall_miss_latency::.switch_cpus.data  11263266500                       # number of overall miss cycles
system.l2.overall_miss_latency::total     11376337500                       # number of overall miss cycles
system.l2.demand_accesses::.cpu.inst                2                       # number of demand (read+write) accesses
system.l2.demand_accesses::.cpu.data                4                       # number of demand (read+write) accesses
system.l2.demand_accesses::.switch_cpus.inst         2299                       # number of demand (read+write) accesses
system.l2.demand_accesses::.switch_cpus.data       118520                       # number of demand (read+write) accesses
system.l2.demand_accesses::total               120825                       # number of demand (read+write) accesses
system.l2.overall_accesses::.cpu.inst               2                       # number of overall (read+write) accesses
system.l2.overall_accesses::.cpu.data               4                       # number of overall (read+write) accesses
system.l2.overall_accesses::.switch_cpus.inst         2299                       # number of overall (read+write) accesses
system.l2.overall_accesses::.switch_cpus.data       118520                       # number of overall (read+write) accesses
system.l2.overall_accesses::total              120825                       # number of overall (read+write) accesses
system.l2.demand_miss_rate::.cpu.inst               1                       # miss rate for demand accesses
system.l2.demand_miss_rate::.cpu.data               1                       # miss rate for demand accesses
system.l2.demand_miss_rate::.switch_cpus.inst     0.612875                       # miss rate for demand accesses
system.l2.demand_miss_rate::.switch_cpus.data     0.935656                       # miss rate for demand accesses
system.l2.demand_miss_rate::total            0.929518                       # miss rate for demand accesses
system.l2.overall_miss_rate::.cpu.inst              1                       # miss rate for overall accesses
system.l2.overall_miss_rate::.cpu.data              1                       # miss rate for overall accesses
system.l2.overall_miss_rate::.switch_cpus.inst     0.612875                       # miss rate for overall accesses
system.l2.overall_miss_rate::.switch_cpus.data     0.935656                       # miss rate for overall accesses
system.l2.overall_miss_rate::total           0.929518                       # miss rate for overall accesses
system.l2.demand_avg_miss_latency::.switch_cpus.inst 80249.112846                       # average overall miss latency
system.l2.demand_avg_miss_latency::.switch_cpus.data 101567.862103                       # average overall miss latency
system.l2.demand_avg_miss_latency::total 101294.976360                       # average overall miss latency
system.l2.overall_avg_miss_latency::.switch_cpus.inst 80249.112846                       # average overall miss latency
system.l2.overall_avg_miss_latency::.switch_cpus.data 101567.862103                       # average overall miss latency
system.l2.overall_avg_miss_latency::total 101294.976360                       # average overall miss latency
system.l2.blocked_cycles::no_mshrs                  0                       # number of cycles access was blocked
system.l2.blocked_cycles::no_targets                0                       # number of cycles access was blocked
system.l2.blocked::no_mshrs                         0                       # number of cycles access was blocked
system.l2.blocked::no_targets                       0                       # number of cycles access was blocked
system.l2.avg_blocked_cycles::no_mshrs            nan                       # average number of cycles each access was blocked
system.l2.avg_blocked_cycles::no_targets          nan                       # average number of cycles each access was blocked
system.l2.writebacks::.writebacks               34474                       # number of writebacks
system.l2.writebacks::total                     34474                       # number of writebacks
system.l2.demand_mshr_misses::.switch_cpus.inst         1409                       # number of demand (read+write) MSHR misses
system.l2.demand_mshr_misses::.switch_cpus.data       110894                       # number of demand (read+write) MSHR misses
system.l2.demand_mshr_misses::total            112303                       # number of demand (read+write) MSHR misses
system.l2.overall_mshr_misses::.switch_cpus.inst         1409                       # number of overall MSHR misses
system.l2.overall_mshr_misses::.switch_cpus.data       110894                       # number of overall MSHR misses
system.l2.overall_mshr_misses::total           112303                       # number of overall MSHR misses
system.l2.demand_mshr_miss_latency::.switch_cpus.inst     98981000                       # number of demand (read+write) MSHR miss cycles
system.l2.demand_mshr_miss_latency::.switch_cpus.data  10154346500                       # number of demand (read+write) MSHR miss cycles
system.l2.demand_mshr_miss_latency::total  10253327500                       # number of demand (read+write) MSHR miss cycles
system.l2.overall_mshr_miss_latency::.switch_cpus.inst     98981000                       # number of overall MSHR miss cycles
system.l2.overall_mshr_miss_latency::.switch_cpus.data  10154346500                       # number of overall MSHR miss cycles
system.l2.overall_mshr_miss_latency::total  10253327500                       # number of overall MSHR miss cycles
system.l2.demand_mshr_miss_rate::.switch_cpus.inst     0.612875                       # mshr miss rate for demand accesses
system.l2.demand_mshr_miss_rate::.switch_cpus.data     0.935656                       # mshr miss rate for demand accesses
system.l2.demand_mshr_miss_rate::total       0.929468                       # mshr miss rate for demand accesses
system.l2.overall_mshr_miss_rate::.switch_cpus.inst     0.612875                       # mshr miss rate for overall accesses
system.l2.overall_mshr_miss_rate::.switch_cpus.data     0.935656                       # mshr miss rate for overall accesses
system.l2.overall_mshr_miss_rate::total      0.929468                       # mshr miss rate for overall accesses
system.l2.demand_avg_mshr_miss_latency::.switch_cpus.inst 70249.112846                       # average overall mshr miss latency
system.l2.demand_avg_mshr_miss_latency::.switch_cpus.data 91568.042455                       # average overall mshr miss latency
system.l2.demand_avg_mshr_miss_latency::total 91300.566325                       # average overall mshr miss latency
system.l2.overall_avg_mshr_miss_latency::.switch_cpus.inst 70249.112846                       # average overall mshr miss latency
system.l2.overall_avg_mshr_miss_latency::.switch_cpus.data 91568.042455                       # average overall mshr miss latency
system.l2.overall_avg_mshr_miss_latency::total 91300.566325                       # average overall mshr miss latency
system.l2.replacements                         122463                       # number of replacements
system.l2.WritebackDirty_hits::.writebacks        36856                       # number of WritebackDirty hits
system.l2.WritebackDirty_hits::total            36856                       # number of WritebackDirty hits
system.l2.WritebackDirty_accesses::.writebacks        36856                       # number of WritebackDirty accesses(hits+misses)
system.l2.WritebackDirty_accesses::total        36856                       # number of WritebackDirty accesses(hits+misses)
system.l2.WritebackClean_hits::.writebacks         1788                       # number of WritebackClean hits
system.l2.WritebackClean_hits::total             1788                       # number of WritebackClean hits
system.l2.WritebackClean_accesses::.writebacks         1788                       # number of WritebackClean accesses(hits+misses)
system.l2.WritebackClean_accesses::total         1788                       # number of WritebackClean accesses(hits+misses)
system.l2.CleanEvict_mshr_misses::.writebacks        23585                       # number of CleanEvict MSHR misses
system.l2.CleanEvict_mshr_misses::total         23585                       # number of CleanEvict MSHR misses
system.l2.CleanEvict_mshr_miss_rate::.writebacks          inf                       # mshr miss rate for CleanEvict accesses
system.l2.CleanEvict_mshr_miss_rate::total          inf                       # mshr miss rate for CleanEvict accesses
system.l2.UpgradeReq_hits::.switch_cpus.data            5                       # number of UpgradeReq hits
system.l2.UpgradeReq_hits::total                    5                       # number of UpgradeReq hits
system.l2.UpgradeReq_accesses::.switch_cpus.data            5                       # number of UpgradeReq accesses(hits+misses)
system.l2.UpgradeReq_accesses::total                5                       # number of UpgradeReq accesses(hits+misses)
system.l2.ReadExReq_hits::.switch_cpus.data         1150                       # number of ReadExReq hits
system.l2.ReadExReq_hits::total                  1150                       # number of ReadExReq hits
system.l2.ReadExReq_misses::.switch_cpus.data        34497                       # number of ReadExReq misses
system.l2.ReadExReq_misses::total               34497                       # number of ReadExReq misses
system.l2.ReadExReq_miss_latency::.switch_cpus.data   3400129000                       # number of ReadExReq miss cycles
system.l2.ReadExReq_miss_latency::total    3400129000                       # number of ReadExReq miss cycles
system.l2.ReadExReq_accesses::.switch_cpus.data        35647                       # number of ReadExReq accesses(hits+misses)
system.l2.ReadExReq_accesses::total             35647                       # number of ReadExReq accesses(hits+misses)
system.l2.ReadExReq_miss_rate::.switch_cpus.data     0.967739                       # miss rate for ReadExReq accesses
system.l2.ReadExReq_miss_rate::total         0.967739                       # miss rate for ReadExReq accesses
system.l2.ReadExReq_avg_miss_latency::.switch_cpus.data 98563.034467                       # average ReadExReq miss latency
system.l2.ReadExReq_avg_miss_latency::total 98563.034467                       # average ReadExReq miss latency
system.l2.ReadExReq_mshr_misses::.switch_cpus.data        34497                       # number of ReadExReq MSHR misses
system.l2.ReadExReq_mshr_misses::total          34497                       # number of ReadExReq MSHR misses
system.l2.ReadExReq_mshr_miss_latency::.switch_cpus.data   3055159000                       # number of ReadExReq MSHR miss cycles
system.l2.ReadExReq_mshr_miss_latency::total   3055159000                       # number of ReadExReq MSHR miss cycles
system.l2.ReadExReq_mshr_miss_rate::.switch_cpus.data     0.967739                       # mshr miss rate for ReadExReq accesses
system.l2.ReadExReq_mshr_miss_rate::total     0.967739                       # mshr miss rate for ReadExReq accesses
system.l2.ReadExReq_avg_mshr_miss_latency::.switch_cpus.data 88563.034467                       # average ReadExReq mshr miss latency
system.l2.ReadExReq_avg_mshr_miss_latency::total 88563.034467                       # average ReadExReq mshr miss latency
system.l2.ReadCleanReq_hits::.switch_cpus.inst          890                       # number of ReadCleanReq hits
system.l2.ReadCleanReq_hits::total                890                       # number of ReadCleanReq hits
system.l2.ReadCleanReq_misses::.cpu.inst            2                       # number of ReadCleanReq misses
system.l2.ReadCleanReq_misses::.switch_cpus.inst         1409                       # number of ReadCleanReq misses
system.l2.ReadCleanReq_misses::total             1411                       # number of ReadCleanReq misses
system.l2.ReadCleanReq_miss_latency::.switch_cpus.inst    113071000                       # number of ReadCleanReq miss cycles
system.l2.ReadCleanReq_miss_latency::total    113071000                       # number of ReadCleanReq miss cycles
system.l2.ReadCleanReq_accesses::.cpu.inst            2                       # number of ReadCleanReq accesses(hits+misses)
system.l2.ReadCleanReq_accesses::.switch_cpus.inst         2299                       # number of ReadCleanReq accesses(hits+misses)
[...]
system.cpu.itb_walker_cache.tags.tag_accesses            0                       # Number of tag accesses
system.cpu.itb_walker_cache.tags.data_accesses            0                       # Number of data accesses
system.cpu.itb.walker.pwrStateResidencyTicks::UNDEFINED 371694566991500                       # Cumulative time (in ticks) in various power states
system.cpu.dtb_walker_cache.pwrStateResidencyTicks::UNDEFINED 371694566991500                       # Cumulative time (in ticks) in various power states
system.cpu.dtb_walker_cache.blocked_cycles::no_mshrs            0                       # number of cycles access was blocked
system.cpu.dtb_walker_cache.blocked_cycles::no_targets            0                       # number of cycles access was blocked
system.cpu.dtb_walker_cache.blocked::no_mshrs            0                       # number of cycles access was blocked
system.cpu.dtb_walker_cache.blocked::no_targets            0                       # number of cycles access was blocked
system.cpu.dtb_walker_cache.avg_blocked_cycles::no_mshrs          nan                       # average number of cycles each access was blocked
system.cpu.dtb_walker_cache.avg_blocked_cycles::no_targets          nan                       # average number of cycles each access was blocked
system.cpu.dtb_walker_cache.replacements            0                       # number of replacements
system.cpu.dtb_walker_cache.tags.pwrStateResidencyTicks::UNDEFINED 371694566991500                       # Cumulative time (in ticks) in various power states
system.cpu.dtb_walker_cache.tags.tagsinuse            0                       # Cycle average of tags in use
system.cpu.dtb_walker_cache.tags.total_refs            0                       # Total number of references to valid blocks.
system.cpu.dtb_walker_cache.tags.sampled_refs            0                       # Sample count of references to valid blocks.
system.cpu.dtb_walker_cache.tags.avg_refs          nan                       # Average number of references to valid blocks.
system.cpu.dtb_walker_cache.tags.warmup_cycle            0                       # Cycle when the warmup percentage was hit.
system.cpu.dtb_walker_cache.tags.tag_accesses            0                       # Number of tag accesses
system.cpu.dtb_walker_cache.tags.data_accesses            0                       # Number of data accesses
system.cpu.dcache.pwrStateResidencyTicks::UNDEFINED 371694566991500                       # Cumulative time (in ticks) in various power states
system.cpu.dcache.demand_hits::.cpu.data            4                       # number of demand (read+write) hits
system.cpu.dcache.demand_hits::.switch_cpus.data     37070332                       # number of demand (read+write) hits
system.cpu.dcache.demand_hits::total         37070336                       # number of demand (read+write) hits
system.cpu.dcache.overall_hits::.cpu.data            4                       # number of overall hits
system.cpu.dcache.overall_hits::.switch_cpus.data     37132698                       # number of overall hits
system.cpu.dcache.overall_hits::total        37132702                       # number of overall hits
system.cpu.dcache.demand_misses::.cpu.data            4                       # number of demand (read+write) misses
system.cpu.dcache.demand_misses::.switch_cpus.data       655972                       # number of demand (read+write) misses
system.cpu.dcache.demand_misses::total         655976                       # number of demand (read+write) misses
system.cpu.dcache.overall_misses::.cpu.data            4                       # number of overall misses
system.cpu.dcache.overall_misses::.switch_cpus.data       667152                       # number of overall misses
system.cpu.dcache.overall_misses::total        667156                       # number of overall misses
system.cpu.dcache.demand_miss_latency::.switch_cpus.data  60661517999                       # number of demand (read+write) miss cycles
system.cpu.dcache.demand_miss_latency::total  60661517999                       # number of demand (read+write) miss cycles
system.cpu.dcache.overall_miss_latency::.switch_cpus.data  60661517999                       # number of overall miss cycles
system.cpu.dcache.overall_miss_latency::total  60661517999                       # number of overall miss cycles
system.cpu.dcache.demand_accesses::.cpu.data            8                       # number of demand (read+write) accesses
system.cpu.dcache.demand_accesses::.switch_cpus.data     37726304                       # number of demand (read+write) accesses
system.cpu.dcache.demand_accesses::total     37726312                       # number of demand (read+write) accesses
system.cpu.dcache.overall_accesses::.cpu.data            8                       # number of overall (read+write) accesses
system.cpu.dcache.overall_accesses::.switch_cpus.data     37799850                       # number of overall (read+write) accesses
system.cpu.dcache.overall_accesses::total     37799858                       # number of overall (read+write) accesses
system.cpu.dcache.demand_miss_rate::.cpu.data     0.500000                       # miss rate for demand accesses
system.cpu.dcache.demand_miss_rate::.switch_cpus.data     0.017388                       # miss rate for demand accesses
system.cpu.dcache.demand_miss_rate::total     0.017388                       # miss rate for demand accesses
system.cpu.dcache.overall_miss_rate::.cpu.data     0.500000                       # miss rate for overall accesses
system.cpu.dcache.overall_miss_rate::.switch_cpus.data     0.017650                       # miss rate for overall accesses
system.cpu.dcache.overall_miss_rate::total     0.017650                       # miss rate for overall accesses
system.cpu.dcache.demand_avg_miss_latency::.switch_cpus.data 92475.773355                       # average overall miss latency
system.cpu.dcache.demand_avg_miss_latency::total 92475.209457                       # average overall miss latency
system.cpu.dcache.overall_avg_miss_latency::.switch_cpus.data 90926.082810                       # average overall miss latency
system.cpu.dcache.overall_avg_miss_latency::total 90925.537654                       # average overall miss latency
system.cpu.dcache.blocked_cycles::no_mshrs      7457675                       # number of cycles access was blocked
system.cpu.dcache.blocked_cycles::no_targets            0                       # number of cycles access was blocked
system.cpu.dcache.blocked::no_mshrs            106322                       # number of cycles access was blocked
system.cpu.dcache.blocked::no_targets               0                       # number of cycles access was blocked
system.cpu.dcache.avg_blocked_cycles::no_mshrs    70.142351                       # average number of cycles each access was blocked
system.cpu.dcache.avg_blocked_cycles::no_targets          nan                       # average number of cycles each access was blocked
system.cpu.dcache.writebacks::.writebacks       133233                       # number of writebacks
system.cpu.dcache.writebacks::total            133233                       # number of writebacks
system.cpu.dcache.demand_mshr_hits::.switch_cpus.data       209900                       # number of demand (read+write) MSHR hits
system.cpu.dcache.demand_mshr_hits::total       209900                       # number of demand (read+write) MSHR hits
system.cpu.dcache.overall_mshr_hits::.switch_cpus.data       209900                       # number of overall MSHR hits
system.cpu.dcache.overall_mshr_hits::total       209900                       # number of overall MSHR hits
system.cpu.dcache.demand_mshr_misses::.switch_cpus.data       446072                       # number of demand (read+write) MSHR misses
system.cpu.dcache.demand_mshr_misses::total       446072                       # number of demand (read+write) MSHR misses
system.cpu.dcache.overall_mshr_misses::.switch_cpus.data       451514                       # number of overall MSHR misses
system.cpu.dcache.overall_mshr_misses::total       451514                       # number of overall MSHR misses
system.cpu.dcache.demand_mshr_miss_latency::.switch_cpus.data  42825220999                       # number of demand (read+write) MSHR miss cycles
system.cpu.dcache.demand_mshr_miss_latency::total  42825220999                       # number of demand (read+write) MSHR miss cycles
system.cpu.dcache.overall_mshr_miss_latency::.switch_cpus.data  43325796499                       # number of overall MSHR miss cycles
system.cpu.dcache.overall_mshr_miss_latency::total  43325796499                       # number of overall MSHR miss cycles
system.cpu.dcache.demand_mshr_miss_rate::.switch_cpus.data     0.011824                       # mshr miss rate for demand accesses
system.cpu.dcache.demand_mshr_miss_rate::total     0.011824                       # mshr miss rate for demand accesses
system.cpu.dcache.overall_mshr_miss_rate::.switch_cpus.data     0.011945                       # mshr miss rate for overall accesses
system.cpu.dcache.overall_mshr_miss_rate::total     0.011945                       # mshr miss rate for overall accesses
system.cpu.dcache.demand_avg_mshr_miss_latency::.switch_cpus.data 96005.176292                       # average overall mshr miss latency
system.cpu.dcache.demand_avg_mshr_miss_latency::total 96005.176292                       # average overall mshr miss latency
system.cpu.dcache.overall_avg_mshr_miss_latency::.switch_cpus.data 95956.706767                       # average overall mshr miss latency
system.cpu.dcache.overall_avg_mshr_miss_latency::total 95956.706767                       # average overall mshr miss latency
system.cpu.dcache.replacements                 450489                       # number of replacements
system.cpu.dcache.ReadReq_hits::.cpu.data            4                       # number of ReadReq hits
system.cpu.dcache.ReadReq_hits::.switch_cpus.data     28215677                       # number of ReadReq hits
system.cpu.dcache.ReadReq_hits::total        28215681                       # number of ReadReq hits
system.cpu.dcache.ReadReq_misses::.cpu.data            4                       # number of ReadReq misses
system.cpu.dcache.ReadReq_misses::.switch_cpus.data       527910                       # number of ReadReq misses
system.cpu.dcache.ReadReq_misses::total        527914                       # number of ReadReq misses
system.cpu.dcache.ReadReq_miss_latency::.switch_cpus.data  48122468000                       # number of ReadReq miss cycles
system.cpu.dcache.ReadReq_miss_latency::total  48122468000                       # number of ReadReq miss cycles
system.cpu.dcache.ReadReq_accesses::.cpu.data            8                       # number of ReadReq accesses(hits+misses)
system.cpu.dcache.ReadReq_accesses::.switch_cpus.data     28743587                       # number of ReadReq accesses(hits+misses)
system.cpu.dcache.ReadReq_accesses::total     28743595                       # number of ReadReq accesses(hits+misses)
system.cpu.dcache.ReadReq_miss_rate::.cpu.data     0.500000                       # miss rate for ReadReq accesses
system.cpu.dcache.ReadReq_miss_rate::.switch_cpus.data     0.018366                       # miss rate for ReadReq accesses
system.cpu.dcache.ReadReq_miss_rate::total     0.018366                       # miss rate for ReadReq accesses
system.cpu.dcache.ReadReq_avg_miss_latency::.switch_cpus.data 91156.575932                       # average ReadReq miss latency
system.cpu.dcache.ReadReq_avg_miss_latency::total 91155.885239                       # average ReadReq miss latency
system.cpu.dcache.ReadReq_mshr_hits::.switch_cpus.data       209795                       # number of ReadReq MSHR hits
system.cpu.dcache.ReadReq_mshr_hits::total       209795                       # number of ReadReq MSHR hits
system.cpu.dcache.ReadReq_mshr_misses::.switch_cpus.data       318115                       # number of ReadReq MSHR misses
system.cpu.dcache.ReadReq_mshr_misses::total       318115                       # number of ReadReq MSHR misses
system.cpu.dcache.ReadReq_mshr_miss_latency::.switch_cpus.data  30417275000                       # number of ReadReq MSHR miss cycles
system.cpu.dcache.ReadReq_mshr_miss_latency::total  30417275000                       # number of ReadReq MSHR miss cycles
system.cpu.dcache.ReadReq_mshr_miss_rate::.switch_cpus.data     0.011067                       # mshr miss rate for ReadReq accesses
system.cpu.dcache.ReadReq_mshr_miss_rate::total     0.011067                       # mshr miss rate for ReadReq accesses
system.cpu.dcache.ReadReq_avg_mshr_miss_latency::.switch_cpus.data 95617.229618                       # average ReadReq mshr miss latency
system.cpu.dcache.ReadReq_avg_mshr_miss_latency::total 95617.229618                       # average ReadReq mshr miss latency
system.cpu.dcache.WriteReq_hits::.switch_cpus.data      8854655                       # number of WriteReq hits
system.cpu.dcache.WriteReq_hits::total        8854655                       # number of WriteReq hits
system.cpu.dcache.WriteReq_misses::.switch_cpus.data       128062                       # number of WriteReq misses
system.cpu.dcache.WriteReq_misses::total       128062                       # number of WriteReq misses
system.cpu.dcache.WriteReq_miss_latency::.switch_cpus.data  12539049999                       # number of WriteReq miss cycles
system.cpu.dcache.WriteReq_miss_latency::total  12539049999                       # number of WriteReq miss cycles
system.cpu.dcache.WriteReq_accesses::.switch_cpus.data      8982717                       # number of WriteReq accesses(hits+misses)
system.cpu.dcache.WriteReq_accesses::total      8982717                       # number of WriteReq accesses(hits+misses)
system.cpu.dcache.WriteReq_miss_rate::.switch_cpus.data     0.014256                       # miss rate for WriteReq accesses
system.cpu.dcache.WriteReq_miss_rate::total     0.014256                       # miss rate for WriteReq accesses
system.cpu.dcache.WriteReq_avg_miss_latency::.switch_cpus.data 97913.901071                       # average WriteReq miss latency
system.cpu.dcache.WriteReq_avg_miss_latency::total 97913.901071                       # average WriteReq miss latency
system.cpu.dcache.WriteReq_mshr_hits::.switch_cpus.data          105                       # number of WriteReq MSHR hits
system.cpu.dcache.WriteReq_mshr_hits::total          105                       # number of WriteReq MSHR hits
system.cpu.dcache.WriteReq_mshr_misses::.switch_cpus.data       127957                       # number of WriteReq MSHR misses
system.cpu.dcache.WriteReq_mshr_misses::total       127957                       # number of WriteReq MSHR misses
system.cpu.dcache.WriteReq_mshr_miss_latency::.switch_cpus.data  12407945999                       # number of WriteReq MSHR miss cycles
system.cpu.dcache.WriteReq_mshr_miss_latency::total  12407945999                       # number of WriteReq MSHR miss cycles
system.cpu.dcache.WriteReq_mshr_miss_rate::.switch_cpus.data     0.014245                       # mshr miss rate for WriteReq accesses
system.cpu.dcache.WriteReq_mshr_miss_rate::total     0.014245                       # mshr miss rate for WriteReq accesses
system.cpu.dcache.WriteReq_avg_mshr_miss_latency::.switch_cpus.data 96969.653860                       # average WriteReq mshr miss latency
system.cpu.dcache.WriteReq_avg_mshr_miss_latency::total 96969.653860                       # average WriteReq mshr miss latency
system.cpu.dcache.SoftPFReq_hits::.switch_cpus.data        62366                       # number of SoftPFReq hits
system.cpu.dcache.SoftPFReq_hits::total         62366                       # number of SoftPFReq hits
system.cpu.dcache.SoftPFReq_misses::.switch_cpus.data        11180                       # number of SoftPFReq misses
system.cpu.dcache.SoftPFReq_misses::total        11180                       # number of SoftPFReq misses
system.cpu.dcache.SoftPFReq_accesses::.switch_cpus.data        73546                       # number of SoftPFReq accesses(hits+misses)
system.cpu.dcache.SoftPFReq_accesses::total        73546                       # number of SoftPFReq accesses(hits+misses)
system.cpu.dcache.SoftPFReq_miss_rate::.switch_cpus.data     0.152014                       # miss rate for SoftPFReq accesses
system.cpu.dcache.SoftPFReq_miss_rate::total     0.152014                       # miss rate for SoftPFReq accesses
system.cpu.dcache.SoftPFReq_mshr_misses::.switch_cpus.data         5442                       # number of SoftPFReq MSHR misses
system.cpu.dcache.SoftPFReq_mshr_misses::total         5442                       # number of SoftPFReq MSHR misses
system.cpu.dcache.SoftPFReq_mshr_miss_latency::.switch_cpus.data    500575500                       # number of SoftPFReq MSHR miss cycles
system.cpu.dcache.SoftPFReq_mshr_miss_latency::total    500575500                       # number of SoftPFReq MSHR miss cycles
system.cpu.dcache.SoftPFReq_mshr_miss_rate::.switch_cpus.data     0.073995                       # mshr miss rate for SoftPFReq accesses
system.cpu.dcache.SoftPFReq_mshr_miss_rate::total     0.073995                       # mshr miss rate for SoftPFReq accesses
system.cpu.dcache.SoftPFReq_avg_mshr_miss_latency::.switch_cpus.data 91983.737596                       # average SoftPFReq mshr miss latency
system.cpu.dcache.SoftPFReq_avg_mshr_miss_latency::total 91983.737596                       # average SoftPFReq mshr miss latency
system.cpu.dcache.tags.pwrStateResidencyTicks::UNDEFINED 371694566991500                       # Cumulative time (in ticks) in various power states
system.cpu.dcache.tags.tagsinuse             0.092023                       # Cycle average of tags in use
system.cpu.dcache.tags.total_refs            37584220                       # Total number of references to valid blocks.
system.cpu.dcache.tags.sampled_refs            451513                       # Sample count of references to valid blocks.
system.cpu.dcache.tags.avg_refs             83.240615                       # Average number of references to valid blocks.
system.cpu.dcache.tags.warmup_cycle      371661094883500                       # Cycle when the warmup percentage was hit.
system.cpu.dcache.tags.occ_blocks::.cpu.data     0.000004                       # Average occupied blocks per requestor
system.cpu.dcache.tags.occ_blocks::.switch_cpus.data     0.092019                       # Average occupied blocks per requestor
system.cpu.dcache.tags.occ_percent::.cpu.data     0.000000                       # Average percentage of cache occupancy
system.cpu.dcache.tags.occ_percent::.switch_cpus.data     0.000090                       # Average percentage of cache occupancy
system.cpu.dcache.tags.occ_percent::total     0.000090                       # Average percentage of cache occupancy
system.cpu.dcache.tags.occ_task_id_blocks::1024         1024                       # Occupied blocks per task id
system.cpu.dcache.tags.age_task_id_blocks_1024::0          116                       # Occupied blocks per task id
system.cpu.dcache.tags.age_task_id_blocks_1024::1          736                       # Occupied blocks per task id
system.cpu.dcache.tags.age_task_id_blocks_1024::2          160                       # Occupied blocks per task id
system.cpu.dcache.tags.age_task_id_blocks_1024::3           12                       # Occupied blocks per task id
system.cpu.dcache.tags.occ_task_id_percent::1024            1                       # Percentage of cache occupancy per task id
system.cpu.dcache.tags.tag_accesses          76051229                       # Number of tag accesses
system.cpu.dcache.tags.data_accesses         76051229                       # Number of data accesses

---------- End Simulation Statistics   ----------
