
---------- Begin Simulation Statistics ----------
final_tick                               1764547131500                       # Number of ticks from beginning of simulation (restored from checkpoints and never reset)
host_inst_rate                                 635496                       # Simulator instruction rate (inst/s)
host_mem_usage                                 884916                       # Number of bytes of host memory used
host_op_rate                                  1197842                       # Simulator op (including micro ops) rate (op/s)
host_seconds                                    15.74                       # Real time elapsed on the host
host_tick_rate                              757770293                       # Simulator tick rate (ticks/s)
sim_freq                                 1000000000000                       # Frequency of simulated ticks
sim_insts                                    10000001                       # Number of instructions simulated
sim_ops                                      18849196                       # Number of ops (including micro ops) simulated
sim_seconds                                  0.011924                       # Number of seconds simulated
sim_ticks                                 11924272750                       # Number of ticks simulated
system.cpu.branchPred.BTBCorrect                    0                       # Number of correct BTB predictions (this stat may not work properly.
system.cpu.branchPred.BTBHitPct                   nan                       # BTB Hit Percentage
system.cpu.branchPred.BTBHits                       0                       # Number of BTB hits
system.cpu.branchPred.BTBLookups                    0                       # Number of BTB lookups
system.cpu.branchPred.RASInCorrect                  0                       # Number of incorrect RAS predictions.
system.cpu.branchPred.condIncorrect                 0                       # Number of conditional branches incorrect
system.cpu.branchPred.condPredicted                 0                       # Number of conditional branches predicted
system.cpu.branchPred.indirectHits                  0                       # Number of indirect target hits.
system.cpu.branchPred.indirectLookups               0                       # Number of indirect predictor lookups.
system.cpu.branchPred.indirectMisses                0                       # Number of indirect misses.
system.cpu.branchPred.lookups                       0                       # Number of BP lookups
system.cpu.branchPred.usedRAS                       0                       # Number of times the RAS was used to get a target.
system.cpu.branchPredindirectMispredicted            0                       # Number of mispredicted indirect branches.
system.cpu.cc_regfile_reads                         5                       # number of cc regfile reads
system.cpu.commit.amos                              0                       # Number of atomic instructions committed
system.cpu.commit.branches                          0                       # Number of branches committed
system.cpu.commit.bw_lim_events                     0                       # number cycles where commit BW limit reached
system.cpu.commit.commitSquashedInsts              39                       # The number of squashed insts skipped by commit
system.cpu.commit.committedInsts                    1                       # Number of instructions committed
system.cpu.commit.committedOps                      3                       # Number of ops (including micro ops) committed
system.cpu.commit.committed_per_cycle::samples           69                       # Number of insts commited each cycle
system.cpu.commit.committed_per_cycle::mean     0.043478                       # Number of insts commited each cycle
system.cpu.commit.committed_per_cycle::stdev     0.205425                       # Number of insts commited each cycle
system.cpu.commit.committed_per_cycle::underflows            0      0.00%      0.00% # Number of insts commited each cycle
system.cpu.commit.committed_per_cycle::0           66     95.65%     95.65% # Number of insts commited each cycle
system.cpu.commit.committed_per_cycle::1            3      4.35%    100.00% # Number of insts commited each cycle
system.cpu.commit.committed_per_cycle::2            0      0.00%    100.00% # Number of insts commited each cycle
system.cpu.commit.committed_per_cycle::3            0      0.00%    100.00% # Number of insts commited each cycle
system.cpu.commit.committed_per_cycle::4            0      0.00%    100.00% # Number of insts commited each cycle
system.cpu.commit.committed_per_cycle::5            0      0.00%    100.00% # Number of insts commited each cycle
system.cpu.commit.committed_per_cycle::6            0      0.00%    100.00% # Number of insts commited each cycle
system.cpu.commit.committed_per_cycle::7            0      0.00%    100.00% # Number of insts commited each cycle
system.cpu.commit.committed_per_cycle::8            0      0.00%    100.00% # Number of insts commited each cycle
system.cpu.commit.committed_per_cycle::overflows            0      0.00%    100.00% # Number of insts commited each cycle
system.cpu.commit.committed_per_cycle::min_value            0                       # Number of insts commited each cycle
system.cpu.commit.committed_per_cycle::max_value            1                       # Number of insts commited each cycle
system.cpu.commit.committed_per_cycle::total           69                       # Number of insts commited each cycle
system.cpu.commit.fp_insts                          2                       # Number of committed floating point instructions.
system.cpu.commit.function_calls                    0                       # Number of function calls committed.
system.cpu.commit.int_insts                         2                       # Number of committed integer instructions.
system.cpu.commit.loads                             1                       # Number of loads committed
system.cpu.commit.membars                           0                       # Number of memory barriers committed
system.cpu.commit.op_class_0::No_OpClass            0      0.00%      0.00% # Class of committed instruction
system.cpu.commit.op_class_0::IntAlu                1     33.33%     33.33% # Class of committed instruction
system.cpu.commit.op_class_0::IntMult               0      0.00%     33.33% # Class of committed instruction
system.cpu.commit.op_class_0::IntDiv                0      0.00%     33.33% # Class of committed instruction
system.cpu.commit.op_class_0::FloatAdd              0      0.00%     33.33% # Class of committed instruction
system.cpu.commit.op_class_0::FloatCmp              0      0.00%     33.33% # Class of committed instruction
system.cpu.commit.op_class_0::FloatCvt              0      0.00%     33.33% # Class of committed instruction
system.cpu.commit.op_class_0::FloatMult             0      0.00%     33.33% # Class of committed instruction
system.cpu.commit.op_class_0::FloatMultAcc            0      0.00%     33.33% # Class of committed instruction
system.cpu.commit.op_class_0::FloatDiv              0      0.00%     33.33% # Class of committed instruction
system.cpu.commit.op_class_0::FloatMisc             0      0.00%     33.33% # Class of committed instruction
system.cpu.commit.op_class_0::FloatSqrt             0      0.00%     33.33% # Class of committed instruction
system.cpu.commit.op_class_0::SimdAdd               0      0.00%     33.33% # Class of committed instruction
system.cpu.commit.op_class_0::SimdAddAcc            0      0.00%     33.33% # Class of committed instruction
system.cpu.commit.op_class_0::SimdAlu               0      0.00%     33.33% # Class of committed instruction
system.cpu.commit.op_class_0::SimdCmp               0      0.00%     33.33% # Class of committed instruction
system.cpu.commit.op_class_0::SimdCvt               0      0.00%     33.33% # Class of committed instruction
system.cpu.commit.op_class_0::SimdMisc              0      0.00%     33.33% # Class of committed instruction
system.cpu.commit.op_class_0::SimdMult              0      0.00%     33.33% # Class of committed instruction
system.cpu.commit.op_class_0::SimdMultAcc            0      0.00%     33.33% # Class of committed instruction
system.cpu.commit.op_class_0::SimdShift             0      0.00%     33.33% # Class of committed instruction
system.cpu.commit.op_class_0::SimdShiftAcc            0      0.00%     33.33% # Class of committed instruction
system.cpu.commit.op_class_0::SimdDiv               0      0.00%     33.33% # Class of committed instruction
system.cpu.commit.op_class_0::SimdSqrt              0      0.00%     33.33% # Class of committed instruction
system.cpu.commit.op_class_0::SimdFloatAdd            0      0.00%     33.33% # Class of committed instruction
system.cpu.commit.op_class_0::SimdFloatAlu            0      0.00%     33.33% # Class of committed instruction
system.cpu.commit.op_class_0::SimdFloatCmp            0      0.00%     33.33% # Class of committed instruction
system.cpu.commit.op_class_0::SimdFloatCvt            0      0.00%     33.33% # Class of committed instruction
system.cpu.commit.op_class_0::SimdFloatDiv            0      0.00%     33.33% # Class of committed instruction
system.cpu.commit.op_class_0::SimdFloatMisc            0      0.00%     33.33% # Class of committed instruction
system.cpu.commit.op_class_0::SimdFloatMult            1     33.33%     66.67% # Class of committed instruction
system.cpu.commit.op_class_0::SimdFloatMultAcc            0      0.00%     66.67% # Class of committed instruction
system.cpu.commit.op_class_0::SimdFloatSqrt            0      0.00%     66.67% # Class of committed instruction
system.cpu.commit.op_class_0::SimdReduceAdd            0      0.00%     66.67% # Class of committed instruction
system.cpu.commit.op_class_0::SimdReduceAlu            0      0.00%     66.67% # Class of committed instruction
system.cpu.commit.op_class_0::SimdReduceCmp            0      0.00%     66.67% # Class of committed instruction
system.cpu.commit.op_class_0::SimdFloatReduceAdd            0      0.00%     66.67% # Class of committed instruction
system.cpu.commit.op_class_0::SimdFloatReduceCmp            0      0.00%     66.67% # Class of committed instruction
system.cpu.commit.op_class_0::SimdAes               0      0.00%     66.67% # Class of committed instruction
system.cpu.commit.op_class_0::SimdAesMix            0      0.00%     66.67% # Class of committed instruction
system.cpu.commit.op_class_0::SimdSha1Hash            0      0.00%     66.67% # Class of committed instruction
system.cpu.commit.op_class_0::SimdSha1Hash2            0      0.00%     66.67% # Class of committed instruction
system.cpu.commit.op_class_0::SimdSha256Hash            0      0.00%     66.67% # Class of committed instruction
system.cpu.commit.op_class_0::SimdSha256Hash2            0      0.00%     66.67% # Class of committed instruction
system.cpu.commit.op_class_0::SimdShaSigma2            0      0.00%     66.67% # Class of committed instruction
system.cpu.commit.op_class_0::SimdShaSigma3            0      0.00%     66.67% # Class of committed instruction
system.cpu.commit.op_class_0::SimdPredAlu            0      0.00%     66.67% # Class of committed instruction
system.cpu.commit.op_class_0::MemRead               0      0.00%     66.67% # Class of committed instruction
system.cpu.commit.op_class_0::MemWrite              0      0.00%     66.67% # Class of committed instruction
system.cpu.commit.op_class_0::FloatMemRead            1     33.33%    100.00% # Class of committed instruction
system.cpu.commit.op_class_0::FloatMemWrite            0      0.00%    100.00% # Class of committed instruction
system.cpu.commit.op_class_0::IprAccess             0      0.00%    100.00% # Class of committed instruction
system.cpu.commit.op_class_0::InstPrefetch            0      0.00%    100.00% # Class of committed instruction
system.cpu.commit.op_class_0::total                 3                       # Class of committed instruction
system.cpu.commit.refs                              1                       # Number of memory references committed
system.cpu.commit.swp_count                         0                       # Number of s/w prefetches committed
system.cpu.commit.vec_insts                         0                       # Number of committed Vector instructions.
system.cpu.committedInsts                           1                       # Number of Instructions Simulated
system.cpu.committedOps                             3                       # Number of Ops (including micro ops) Simulated
system.cpu.cpi                             509.000000                       # CPI: Cycles Per Instruction
system.cpu.cpi_total                       509.000000                       # CPI: Total CPI of All Threads
system.cpu.decode.BlockedCycles                     4                       # Number of cycles decode is blocked
system.cpu.decode.DecodedInsts                     42                       # Number of instructions handled by decode
system.cpu.decode.IdleCycles                       63                       # Number of cycles decode is idle
system.cpu.decode.SquashCycles                      1                       # Number of cycles decode is squashing
system.cpu.dtb.rdAccesses                           6                       # TLB accesses on read requests
system.cpu.dtb.rdMisses                             0                       # TLB misses on read requests
system.cpu.dtb.wrAccesses                           0                       # TLB accesses on write requests
system.cpu.dtb.wrMisses                             0                       # TLB misses on write requests
system.cpu.fetch.CacheLines                         4                       # Number of cache lines fetched
system.cpu.fetch.Cycles                             7                       # Number of cycles fetch has run and was not squashing or blocked
system.cpu.fetch.IcacheSquashes                     1                       # Number of outstanding Icache misses that were squashed
system.cpu.fetch.Insts                             28                       # Number of instructions fetch has processed
system.cpu.fetch.PendingDrainCycles                 9                       # Number of cycles fetch has spent waiting on pipes to drain
system.cpu.fetch.SquashCycles                       1                       # Number of cycles fetch has spent squashing
system.cpu.fetch.branchRate                         0                       # Number of branch fetches per cycle
system.cpu.fetch.icacheStallCycles                 58                       # Number of cycles fetch is stalled on an Icache miss
system.cpu.fetch.rate                        0.055010                       # Number of inst fetches per cycle
system.cpu.fetch.rateDist::samples                 74                       # Number of instructions fetched each cycle (Total)
system.cpu.fetch.rateDist::mean              0.567568                       # Number of instructions fetched each cycle (Total)
system.cpu.fetch.rateDist::stdev             1.993696                       # Number of instructions fetched each cycle (Total)
system.cpu.fetch.rateDist::underflows               0      0.00%      0.00% # Number of instructions fetched each cycle (Total)
system.cpu.fetch.rateDist::0                       68     91.89%     91.89% # Number of instructions fetched each cycle (Total)
system.cpu.fetch.rateDist::1                        0      0.00%     91.89% # Number of instructions fetched each cycle (Total)
system.cpu.fetch.rateDist::2                        0      0.00%     91.89% # Number of instructions fetched each cycle (Total)
system.cpu.fetch.rateDist::3                        1      1.35%     93.24% # Number of instructions fetched each cycle (Total)
system.cpu.fetch.rateDist::4                        0      0.00%     93.24% # Number of instructions fetched each cycle (Total)
system.cpu.fetch.rateDist::5                        0      0.00%     93.24% # Number of instructions fetched each cycle (Total)
system.cpu.fetch.rateDist::6                        0      0.00%     93.24% # Number of instructions fetched each cycle (Total)
system.cpu.fetch.rateDist::7                        1      1.35%     94.59% # Number of instructions fetched each cycle (Total)
system.cpu.fetch.rateDist::8                        4      5.41%    100.00% # Number of instructions fetched each cycle (Total)
system.cpu.fetch.rateDist::overflows                0      0.00%    100.00% # Number of instructions fetched each cycle (Total)
system.cpu.fetch.rateDist::min_value                0                       # Number of instructions fetched each cycle (Total)
system.cpu.fetch.rateDist::max_value                8                       # Number of instructions fetched each cycle (Total)
system.cpu.fetch.rateDist::total                   74                       # Number of instructions fetched each cycle (Total)
system.cpu.fp_regfile_reads                        81                       # number of floating regfile reads
system.cpu.fp_regfile_writes                       15                       # number of floating regfile writes
system.cpu.idleCycles                             435                       # Total number of cycles that the CPU has spent unscheduled due to idling
system.cpu.iew.branchMispredicts                    0                       # Number of branch mispredicts detected at execute
system.cpu.iew.exec_branches                        0                       # Number of branches executed
system.cpu.iew.exec_nop                             0                       # number of nop insts executed
system.cpu.iew.exec_rate                     0.047151                       # Inst execution rate
system.cpu.iew.exec_refs                            6                       # number of memory reference insts executed
system.cpu.iew.exec_stores                          0                       # Number of stores executed
system.cpu.iew.exec_swp                             0                       # number of swp insts executed
system.cpu.iew.iewBlockCycles                       4                       # Number of cycles IEW is blocking
system.cpu.iew.iewDispLoadInsts                     6                       # Number of dispatched load instructions
system.cpu.iew.iewDispNonSpecInsts                  0                       # Number of dispatched non-speculative instructions
system.cpu.iew.iewDispSquashedInsts                 0                       # Number of squashed instructions skipped by dispatch
system.cpu.iew.iewDispStoreInsts                    0                       # Number of dispatched store instructions
system.cpu.iew.iewDispatchedInsts                  42                       # Number of instructions dispatched to IQ
system.cpu.iew.iewExecLoadInsts                     6                       # Number of load instructions executed
system.cpu.iew.iewExecSquashedInsts                 0                       # Number of squashed instructions skipped in execute
system.cpu.iew.iewExecutedInsts                    24                       # Number of executed instructions
system.cpu.iew.iewIQFullEvents                      0                       # Number of times the IQ has become full, causing a stall
system.cpu.iew.iewIdleCycles                        0                       # Number of cycles IEW is idle
system.cpu.iew.iewLSQFullEvents                     0                       # Number of times the LSQ has become full, causing a stall
system.cpu.iew.iewSquashCycles                      1                       # Number of cycles IEW is squashing
system.cpu.iew.iewUnblockCycles                     0                       # Number of cycles IEW is unblocking
system.cpu.iew.lsq.thread0.blockedLoads             0                       # Number of blocked loads due to partial load-store forwarding
system.cpu.iew.lsq.thread0.cacheBlocked             0                       # Number of times an access to memory failed due to the cache being blocked
system.cpu.iew.lsq.thread0.forwLoads                0                       # Number of loads that had data forwarded from stores
system.cpu.iew.lsq.thread0.ignoredResponses            0                       # Number of memory responses ignored because the instruction is squashed
system.cpu.iew.lsq.thread0.invAddrLoads             0                       # Number of loads ignored due to an invalid address
system.cpu.iew.lsq.thread0.invAddrSwpfs             0                       # Number of software prefetches ignored due to an invalid address
system.cpu.iew.lsq.thread0.memOrderViolation            0                       # Number of memory ordering violations
system.cpu.iew.lsq.thread0.rescheduledLoads            0                       # Number of loads that were rescheduled
system.cpu.iew.lsq.thread0.squashedLoads            5                       # Number of loads squashed
system.cpu.iew.lsq.thread0.squashedStores            0                       # Number of stores squashed
system.cpu.iew.memOrderViolationEvents              0                       # Number of memory order violations
system.cpu.iew.predictedNotTakenIncorrect            0                       # Number of branches that were predicted not taken incorrectly
system.cpu.iew.predictedTakenIncorrect              0                       # Number of branches that were predicted taken incorrectly
system.cpu.iew.wb_consumers                        18                       # num instructions consuming a value
system.cpu.iew.wb_count                            20                       # cumulative count of insts written-back
system.cpu.iew.wb_fanout                     0.722222                       # average fanout of values written-back
system.cpu.iew.wb_producers                        13                       # num instructions producing a value
system.cpu.iew.wb_rate                       0.039293                       # insts written-back per cycle
system.cpu.iew.wb_sent                             20                       # cumulative count of insts sent to commit
system.cpu.int_regfile_reads                       53                       # number of integer regfile reads
system.cpu.int_regfile_writes                       5                       # number of integer regfile writes
system.cpu.ipc                               0.001965                       # IPC: Instructions Per Cycle
system.cpu.ipc_total                         0.001965                       # IPC: Total IPC of All Threads
system.cpu.iq.FU_type_0::No_OpClass                 0      0.00%      0.00% # Type of FU issued
system.cpu.iq.FU_type_0::IntAlu                    10     41.67%     41.67% # Type of FU issued
system.cpu.iq.FU_type_0::IntMult                    0      0.00%     41.67% # Type of FU issued
system.cpu.iq.FU_type_0::IntDiv                     0      0.00%     41.67% # Type of FU issued
system.cpu.iq.FU_type_0::FloatAdd                   3     12.50%     54.17% # Type of FU issued
system.cpu.iq.FU_type_0::FloatCmp                   0      0.00%     54.17% # Type of FU issued
system.cpu.iq.FU_type_0::FloatCvt                   0      0.00%     54.17% # Type of FU issued
system.cpu.iq.FU_type_0::FloatMult                  0      0.00%     54.17% # Type of FU issued
system.cpu.iq.FU_type_0::FloatMultAcc               0      0.00%     54.17% # Type of FU issued
system.cpu.iq.FU_type_0::FloatDiv                   0      0.00%     54.17% # Type of FU issued
system.cpu.iq.FU_type_0::FloatMisc                  0      0.00%     54.17% # Type of FU issued
system.cpu.iq.FU_type_0::FloatSqrt                  0      0.00%     54.17% # Type of FU issued
system.cpu.iq.FU_type_0::SimdAdd                    0      0.00%     54.17% # Type of FU issued
system.cpu.iq.FU_type_0::SimdAddAcc                 0      0.00%     54.17% # Type of FU issued
system.cpu.iq.FU_type_0::SimdAlu                    0      0.00%     54.17% # Type of FU issued
system.cpu.iq.FU_type_0::SimdCmp                    0      0.00%     54.17% # Type of FU issued
system.cpu.iq.FU_type_0::SimdCvt                    0      0.00%     54.17% # Type of FU issued
system.cpu.iq.FU_type_0::SimdMisc                   0      0.00%     54.17% # Type of FU issued
system.cpu.iq.FU_type_0::SimdMult                   0      0.00%     54.17% # Type of FU issued
system.cpu.iq.FU_type_0::SimdMultAcc                0      0.00%     54.17% # Type of FU issued
system.cpu.iq.FU_type_0::SimdShift                  0      0.00%     54.17% # Type of FU issued
system.cpu.iq.FU_type_0::SimdShiftAcc               0      0.00%     54.17% # Type of FU issued
system.cpu.iq.FU_type_0::SimdDiv                    0      0.00%     54.17% # Type of FU issued
system.cpu.iq.FU_type_0::SimdSqrt                   0      0.00%     54.17% # Type of FU issued
system.cpu.iq.FU_type_0::SimdFloatAdd               2      8.33%     62.50% # Type of FU issued
system.cpu.iq.FU_type_0::SimdFloatAlu               0      0.00%     62.50% # Type of FU issued
system.cpu.iq.FU_type_0::SimdFloatCmp               0      0.00%     62.50% # Type of FU issued
system.cpu.iq.FU_type_0::SimdFloatCvt               0      0.00%     62.50% # Type of FU issued
system.cpu.iq.FU_type_0::SimdFloatDiv               0      0.00%     62.50% # Type of FU issued
system.cpu.iq.FU_type_0::SimdFloatMisc              0      0.00%     62.50% # Type of FU issued
system.cpu.iq.FU_type_0::SimdFloatMult              3     12.50%     75.00% # Type of FU issued
system.cpu.iq.FU_type_0::SimdFloatMultAcc            0      0.00%     75.00% # Type of FU issued
system.cpu.iq.FU_type_0::SimdFloatSqrt              0      0.00%     75.00% # Type of FU issued
system.cpu.iq.FU_type_0::SimdReduceAdd              0      0.00%     75.00% # Type of FU issued
system.cpu.iq.FU_type_0::SimdReduceAlu              0      0.00%     75.00% # Type of FU issued
system.cpu.iq.FU_type_0::SimdReduceCmp              0      0.00%     75.00% # Type of FU issued
system.cpu.iq.FU_type_0::SimdFloatReduceAdd            0      0.00%     75.00% # Type of FU issued
system.cpu.iq.FU_type_0::SimdFloatReduceCmp            0      0.00%     75.00% # Type of FU issued
system.cpu.iq.FU_type_0::SimdAes                    0      0.00%     75.00% # Type of FU issued
system.cpu.iq.FU_type_0::SimdAesMix                 0      0.00%     75.00% # Type of FU issued
system.cpu.iq.FU_type_0::SimdSha1Hash               0      0.00%     75.00% # Type of FU issued
system.cpu.iq.FU_type_0::SimdSha1Hash2              0      0.00%     75.00% # Type of FU issued
system.cpu.iq.FU_type_0::SimdSha256Hash             0      0.00%     75.00% # Type of FU issued
system.cpu.iq.FU_type_0::SimdSha256Hash2            0      0.00%     75.00% # Type of FU issued
system.cpu.iq.FU_type_0::SimdShaSigma2              0      0.00%     75.00% # Type of FU issued
system.cpu.iq.FU_type_0::SimdShaSigma3              0      0.00%     75.00% # Type of FU issued
system.cpu.iq.FU_type_0::SimdPredAlu                0      0.00%     75.00% # Type of FU issued
system.cpu.iq.FU_type_0::MemRead                    0      0.00%     75.00% # Type of FU issued
system.cpu.iq.FU_type_0::MemWrite                   0      0.00%     75.00% # Type of FU issued
system.cpu.iq.FU_type_0::FloatMemRead               6     25.00%    100.00% # Type of FU issued
system.cpu.iq.FU_type_0::FloatMemWrite              0      0.00%    100.00% # Type of FU issued
system.cpu.iq.FU_type_0::IprAccess                  0      0.00%    100.00% # Type of FU issued
system.cpu.iq.FU_type_0::InstPrefetch               0      0.00%    100.00% # Type of FU issued
system.cpu.iq.FU_type_0::total                     24                       # Type of FU issued
system.cpu.iq.fp_alu_accesses                      19                       # Number of floating point alu accesses
system.cpu.iq.fp_inst_queue_reads                  38                       # Number of floating instruction queue reads
system.cpu.iq.fp_inst_queue_wakeup_accesses           15                       # Number of floating instruction queue wakeup accesses
system.cpu.iq.fp_inst_queue_writes                 72                       # Number of floating instruction queue writes
system.cpu.iq.fu_busy_cnt                           0                       # FU busy when requested
system.cpu.iq.fu_busy_rate                          0                       # FU busy rate (busy events/executed inst)
system.cpu.iq.fu_full::No_OpClass                   0                       # attempts to use FU when none available
system.cpu.iq.fu_full::IntAlu                       0                       # attempts to use FU when none available
system.cpu.iq.fu_full::IntMult                      0                       # attempts to use FU when none available
system.cpu.iq.fu_full::IntDiv                       0                       # attempts to use FU when none available
system.cpu.iq.fu_full::FloatAdd                     0                       # attempts to use FU when none available
system.cpu.iq.fu_full::FloatCmp                     0                       # attempts to use FU when none available
system.cpu.iq.fu_full::FloatCvt                     0                       # attempts to use FU when none available
system.cpu.iq.fu_full::FloatMult                    0                       # attempts to use FU when none available
system.cpu.iq.fu_full::FloatMultAcc                 0                       # attempts to use FU when none available
system.cpu.iq.fu_full::FloatDiv                     0                       # attempts to use FU when none available
system.cpu.iq.fu_full::FloatMisc                    0                       # attempts to use FU when none available
system.cpu.iq.fu_full::FloatSqrt                    0                       # attempts to use FU when none available
system.cpu.iq.fu_full::SimdAdd                      0                       # attempts to use FU when none available
system.cpu.iq.fu_full::SimdAddAcc                   0                       # attempts to use FU when none available
system.cpu.iq.fu_full::SimdAlu                      0                       # attempts to use FU when none available
system.cpu.iq.fu_full::SimdCmp                      0                       # attempts to use FU when none available
system.cpu.iq.fu_full::SimdCvt                      0                       # attempts to use FU when none available
system.cpu.iq.fu_full::SimdMisc                     0                       # attempts to use FU when none available
system.cpu.iq.fu_full::SimdMult                     0                       # attempts to use FU when none available
system.cpu.iq.fu_full::SimdMultAcc                  0                       # attempts to use FU when none available
system.cpu.iq.fu_full::SimdShift                    0                       # attempts to use FU when none available
system.cpu.iq.fu_full::SimdShiftAcc                 0                       # attempts to use FU when none available
system.cpu.iq.fu_full::SimdDiv                      0                       # attempts to use FU when none available
system.cpu.iq.fu_full::SimdSqrt                     0                       # attempts to use FU when none available
system.cpu.iq.fu_full::SimdFloatAdd                 0                       # attempts to use FU when none available
system.cpu.iq.fu_full::SimdFloatAlu                 0                       # attempts to use FU when none available
system.cpu.iq.fu_full::SimdFloatCmp                 0                       # attempts to use FU when none available
system.cpu.iq.fu_full::SimdFloatCvt                 0                       # attempts to use FU when none available
system.cpu.iq.fu_full::SimdFloatDiv                 0                       # attempts to use FU when none available
system.cpu.iq.fu_full::SimdFloatMisc                0                       # attempts to use FU when none available
system.cpu.iq.fu_full::SimdFloatMult                0                       # attempts to use FU when none available
system.cpu.iq.fu_full::SimdFloatMultAcc             0                       # attempts to use FU when none available
system.cpu.iq.fu_full::SimdFloatSqrt                0                       # attempts to use FU when none available
system.cpu.iq.fu_full::SimdReduceAdd                0                       # attempts to use FU when none available
system.cpu.iq.fu_full::SimdReduceAlu                0                       # attempts to use FU when none available
system.cpu.iq.fu_full::SimdReduceCmp                0                       # attempts to use FU when none available
system.cpu.iq.fu_full::SimdFloatReduceAdd            0                       # attempts to use FU when none available
system.cpu.iq.fu_full::SimdFloatReduceCmp            0                       # attempts to use FU when none available
system.cpu.iq.fu_full::SimdAes                      0                       # attempts to use FU when none available
system.cpu.iq.fu_full::SimdAesMix                   0                       # attempts to use FU when none available
system.cpu.iq.fu_full::SimdSha1Hash                 0                       # attempts to use FU when none available
system.cpu.iq.fu_full::SimdSha1Hash2                0                       # attempts to use FU when none available
system.cpu.iq.fu_full::SimdSha256Hash               0                       # attempts to use FU when none available
system.cpu.iq.fu_full::SimdSha256Hash2              0                       # attempts to use FU when none available
system.cpu.iq.fu_full::SimdShaSigma2                0                       # attempts to use FU when none available
system.cpu.iq.fu_full::SimdShaSigma3                0                       # attempts to use FU when none available
system.cpu.iq.fu_full::SimdPredAlu                  0                       # attempts to use FU when none available
system.cpu.iq.fu_full::MemRead                      0                       # attempts to use FU when none available
system.cpu.iq.fu_full::MemWrite                     0                       # attempts to use FU when none available
system.cpu.iq.fu_full::FloatMemRead                 0                       # attempts to use FU when none available
system.cpu.iq.fu_full::FloatMemWrite                0                       # attempts to use FU when none available
system.cpu.iq.fu_full::IprAccess                    0                       # attempts to use FU when none available
system.cpu.iq.fu_full::InstPrefetch                 0                       # attempts to use FU when none available
system.cpu.iq.int_alu_accesses                      5                       # Number of integer alu accesses
system.cpu.iq.int_inst_queue_reads                 84                       # Number of integer instruction queue reads
system.cpu.iq.int_inst_queue_wakeup_accesses            5                       # Number of integer instruction queue wakeup accesses
system.cpu.iq.int_inst_queue_writes                 9                       # Number of integer instruction queue writes
system.cpu.iq.iqInstsAdded                         42                       # Number of instructions added to the IQ (excludes non-spec)
system.cpu.iq.iqInstsIssued                        24                       # Number of instructions issued
system.cpu.iq.iqSquashedInstsExamined              39                       # Number of squashed instructions iterated over during squash; mainly for profiling
system.cpu.iq.iqSquashedOperandsExamined           63                       # Number of squashed operands that are examined and possibly removed from graph
system.cpu.iq.issued_per_cycle::samples            74                       # Number of insts issued each cycle
system.cpu.iq.issued_per_cycle::mean         0.324324                       # Number of insts issued each cycle
system.cpu.iq.issued_per_cycle::stdev        0.994617                       # Number of insts issued each cycle
system.cpu.iq.issued_per_cycle::underflows            0      0.00%      0.00% # Number of insts issued each cycle
system.cpu.iq.issued_per_cycle::0                  63     85.14%     85.14% # Number of insts issued each cycle
system.cpu.iq.issued_per_cycle::1                   6      8.11%     93.24% # Number of insts issued each cycle
system.cpu.iq.issued_per_cycle::2                   1      1.35%     94.59% # Number of insts issued each cycle
system.cpu.iq.issued_per_cycle::3                   2      2.70%     97.30% # Number of insts issued each cycle
system.cpu.iq.issued_per_cycle::4                   1      1.35%     98.65% # Number of insts issued each cycle
system.cpu.iq.issued_per_cycle::5                   0      0.00%     98.65% # Number of insts issued each cycle
system.cpu.iq.issued_per_cycle::6                   1      1.35%    100.00% # Number of insts issued each cycle
system.cpu.iq.issued_per_cycle::7                   0      0.00%    100.00% # Number of insts issued each cycle
system.cpu.iq.issued_per_cycle::8                   0      0.00%    100.00% # Number of insts issued each cycle
system.cpu.iq.issued_per_cycle::overflows            0      0.00%    100.00% # Number of insts issued each cycle
system.cpu.iq.issued_per_cycle::min_value            0                       # Number of insts issued each cycle
system.cpu.iq.issued_per_cycle::max_value            6                       # Number of insts issued each cycle
system.cpu.iq.issued_per_cycle::total              74                       # Number of insts issued each cycle
system.cpu.iq.rate                           0.047151                       # Inst issue rate
system.cpu.iq.vec_alu_accesses                      0                       # Number of vector alu accesses
system.cpu.iq.vec_inst_queue_reads                  0                       # Number of vector instruction queue reads
system.cpu.iq.vec_inst_queue_wakeup_accesses            0                       # Number of vector instruction queue wakeup accesses
system.cpu.iq.vec_inst_queue_writes                 0                       # Number of vector instruction queue writes
system.cpu.itb.rdAccesses                           0                       # TLB accesses on read requests
system.cpu.itb.rdMisses                             0                       # TLB misses on read requests
system.cpu.itb.wrAccesses                           4                       # TLB accesses on write requests
system.cpu.itb.wrMisses                             0                       # TLB misses on write requests
system.cpu.memDep0.conflictingLoads                 0                       # Number of conflicting loads.
system.cpu.memDep0.conflictingStores                0                       # Number of conflicting stores.
system.cpu.memDep0.insertedLoads                    6                       # Number of loads inserted to the mem dependence unit.
system.cpu.memDep0.insertedStores                   0                       # Number of stores inserted to the mem dependence unit.
system.cpu.misc_regfile_reads                      11                       # number of misc regfile reads
system.cpu.numCycles                              509                       # number of cpu cycles simulated
system.cpu.numWorkItemsCompleted                    0                       # number of work items this cpu completed
system.cpu.numWorkItemsStarted                      0                       # number of work items this cpu started
system.cpu.rename.BlockCycles                       4                       # Number of cycles rename is blocking
system.cpu.rename.CommittedMaps                     3                       # Number of HB maps that are committed
system.cpu.rename.IdleCycles                       63                       # Number of cycles rename is idle
system.cpu.rename.RenameLookups                   101                       # Number of register rename lookups that rename has made
system.cpu.rename.RenamedInsts                     42                       # Number of instructions processed by rename
system.cpu.rename.RenamedOperands                  42                       # Number of destination operands rename has renamed
system.cpu.rename.RunCycles                         0                       # Number of cycles rename is running
system.cpu.rename.SquashCycles                      1                       # Number of cycles rename is squashing
system.cpu.rename.UndoneMaps                       39                       # Number of HB maps that are undone due to squashing
system.cpu.rename.fp_rename_lookups                76                       # Number of floating rename lookups
system.cpu.rename.int_rename_lookups               15                       # Number of integer rename lookups
system.cpu.rename.serializeStallCycles              0                       # count of cycles rename stalled for serializing inst
system.cpu.rename.serializingInsts                  0                       # count of serializing insts renamed
system.cpu.rename.skidInsts                         0                       # count of insts added to the skid buffer
system.cpu.rename.tempSerializingInsts              0                       # count of temporary serializing insts renamed
system.cpu.rob.rob_reads                          110                       # The number of ROB reads
system.cpu.rob.rob_writes                          89                       # The number of ROB writes
system.cpu.timesIdled                               5                       # Number of times that the entire CPU went into an idle state and unscheduled itself
system.cpu.workload.numSyscalls                     0                       # Number of system calls
system.membus.snoop_filter.hit_multi_requests            0                       # Number of requests hitting in the snoop filter with multiple (>1) holders of the requested data.
system.membus.snoop_filter.hit_multi_snoops            0                       # Number of snoops hitting in the snoop filter with multiple (>1) holders of the requested data.
system.membus.snoop_filter.hit_single_requests       244204                       # Number of requests hitting in the snoop filter with a single holder of the requested data.
system.membus.snoop_filter.hit_single_snoops            0                       # Number of snoops hitting in the snoop filter with a single holder of the requested data.
system.membus.snoop_filter.tot_requests        496905                       # Total number of requests made to the snoop filter.
system.membus.snoop_filter.tot_snoops               0                       # Total number of snoops made to the snoop filter.
system.switch_cpus.Branches                   1162055                       # Number of branches fetched
system.switch_cpus.committedInsts            10000000                       # Number of instructions committed
system.switch_cpus.committedOps              18849193                       # Number of ops (including micro ops) committed
system.switch_cpus.dtb.rdAccesses             3342413                       # TLB accesses on read requests
system.switch_cpus.dtb.rdMisses                  2030                       # TLB misses on read requests
system.switch_cpus.dtb.wrAccesses             1950299                       # TLB accesses on write requests
system.switch_cpus.dtb.wrMisses                  1983                       # TLB misses on write requests
system.switch_cpus.idle_fraction             0.000676                       # Percentage of idle cycles
system.switch_cpus.itb.rdAccesses                   0                       # TLB accesses on read requests
system.switch_cpus.itb.rdMisses                     0                       # TLB misses on read requests
system.switch_cpus.itb.wrAccesses            14983233                       # TLB accesses on write requests
system.switch_cpus.itb.wrMisses                    33                       # TLB misses on write requests
system.switch_cpus.not_idle_fraction         0.999324                       # Percentage of non-idle cycles
system.switch_cpus.numCycles                 23832425                       # number of cpu cycles simulated
system.switch_cpus.numWorkItemsCompleted            0                       # number of work items this cpu completed
system.switch_cpus.numWorkItemsStarted              0                       # number of work items this cpu started
system.switch_cpus.num_busy_cycles       23816315.896366                       # Number of busy cycles
system.switch_cpus.num_cc_register_reads      5136565                       # number of times the CC registers were read
system.switch_cpus.num_cc_register_writes      4715002                       # number of times the CC registers were written
system.switch_cpus.num_conditional_control_insts       815166                       # number of instructions that are conditional controls
system.switch_cpus.num_fp_alu_accesses        7755705                       # Number of float alu accesses
system.switch_cpus.num_fp_insts               7755705                       # number of float instructions
system.switch_cpus.num_fp_register_reads     10268974                       # number of times the floating registers were read
system.switch_cpus.num_fp_register_writes      6219976                       # number of times the floating registers were written
system.switch_cpus.num_func_calls              267426                       # number of times a function call or return occured
system.switch_cpus.num_idle_cycles       16109.103634                       # Number of idle cycles
system.switch_cpus.num_int_alu_accesses      14669470                       # Number of integer alu accesses
system.switch_cpus.num_int_insts             14669470                       # number of integer instructions
system.switch_cpus.num_int_register_reads     29789215                       # number of times the integer registers were read
system.switch_cpus.num_int_register_writes      9437209                       # number of times the integer registers were written
system.switch_cpus.num_load_insts             3342335                       # Number of load instructions
system.switch_cpus.num_mem_refs               5292634                       # number of memory refs
system.switch_cpus.num_store_insts            1950299                       # Number of store instructions
system.switch_cpus.num_vec_alu_accesses             0                       # Number of vector alu accesses
system.switch_cpus.num_vec_insts                    0                       # number of vector instructions
system.switch_cpus.num_vec_register_reads            0                       # number of times the vector registers were read
system.switch_cpus.num_vec_register_writes            0                       # number of times the vector registers were written
system.switch_cpus.op_class::No_OpClass        384934      2.00%      2.00% # Class of executed instruction
system.switch_cpus.op_class::IntAlu          10301509     53.57%     55.57% # Class of executed instruction
system.switch_cpus.op_class::IntMult           106274      0.55%     56.12% # Class of executed instruction
system.switch_cpus.op_class::IntDiv                 0      0.00%     56.12% # Class of executed instruction
system.switch_cpus.op_class::FloatAdd          637734      3.32%     59.44% # Class of executed instruction
system.switch_cpus.op_class::FloatCmp               0      0.00%     59.44% # Class of executed instruction
system.switch_cpus.op_class::FloatCvt               0      0.00%     59.44% # Class of executed instruction
system.switch_cpus.op_class::FloatMult              0      0.00%     59.44% # Class of executed instruction
system.switch_cpus.op_class::FloatMultAcc            0      0.00%     59.44% # Class of executed instruction
system.switch_cpus.op_class::FloatDiv               0      0.00%     59.44% # Class of executed instruction
system.switch_cpus.op_class::FloatMisc              0      0.00%     59.44% # Class of executed instruction
system.switch_cpus.op_class::FloatSqrt              0      0.00%     59.44% # Class of executed instruction
system.switch_cpus.op_class::SimdAdd              216      0.00%     59.44% # Class of executed instruction
system.switch_cpus.op_class::SimdAddAcc             0      0.00%     59.44% # Class of executed instruction
system.switch_cpus.op_class::SimdAlu           216430      1.13%     60.56% # Class of executed instruction
system.switch_cpus.op_class::SimdCmp                0      0.00%     60.56% # Class of executed instruction
system.switch_cpus.op_class::SimdCvt             2916      0.02%     60.58% # Class of executed instruction
system.switch_cpus.op_class::SimdMisc          269023      1.40%     61.98% # Class of executed instruction
system.switch_cpus.op_class::SimdMult               0      0.00%     61.98% # Class of executed instruction
system.switch_cpus.op_class::SimdMultAcc            0      0.00%     61.98% # Class of executed instruction
system.switch_cpus.op_class::SimdShift              0      0.00%     61.98% # Class of executed instruction
system.switch_cpus.op_class::SimdShiftAcc            0      0.00%     61.98% # Class of executed instruction
system.switch_cpus.op_class::SimdDiv                0      0.00%     61.98% # Class of executed instruction
system.switch_cpus.op_class::SimdSqrt               0      0.00%     61.98% # Class of executed instruction
system.switch_cpus.op_class::SimdFloatAdd       956441      4.97%     66.95% # Class of executed instruction
system.switch_cpus.op_class::SimdFloatAlu            0      0.00%     66.95% # Class of executed instruction
system.switch_cpus.op_class::SimdFloatCmp            0      0.00%     66.95% # Class of executed instruction
system.switch_cpus.op_class::SimdFloatCvt       159408      0.83%     67.78% # Class of executed instruction
system.switch_cpus.op_class::SimdFloatDiv        53135      0.28%     68.06% # Class of executed instruction
system.switch_cpus.op_class::SimdFloatMisc            0      0.00%     68.06% # Class of executed instruction
system.switch_cpus.op_class::SimdFloatMult       850171      4.42%     72.48% # Class of executed instruction
system.switch_cpus.op_class::SimdFloatMultAcc            0      0.00%     72.48% # Class of executed instruction
system.switch_cpus.op_class::SimdFloatSqrt            0      0.00%     72.48% # Class of executed instruction
system.switch_cpus.op_class::SimdReduceAdd            0      0.00%     72.48% # Class of executed instruction
system.switch_cpus.op_class::SimdReduceAlu            0      0.00%     72.48% # Class of executed instruction
system.switch_cpus.op_class::SimdReduceCmp            0      0.00%     72.48% # Class of executed instruction
system.switch_cpus.op_class::SimdFloatReduceAdd            0      0.00%     72.48% # Class of executed instruction
system.switch_cpus.op_class::SimdFloatReduceCmp            0      0.00%     72.48% # Class of executed instruction
system.switch_cpus.op_class::SimdAes                0      0.00%     72.48% # Class of executed instruction
system.switch_cpus.op_class::SimdAesMix             0      0.00%     72.48% # Class of executed instruction
system.switch_cpus.op_class::SimdSha1Hash            0      0.00%     72.48% # Class of executed instruction
system.switch_cpus.op_class::SimdSha1Hash2            0      0.00%     72.48% # Class of executed instruction
system.switch_cpus.op_class::SimdSha256Hash            0      0.00%     72.48% # Class of executed instruction
system.switch_cpus.op_class::SimdSha256Hash2            0      0.00%     72.48% # Class of executed instruction
system.switch_cpus.op_class::SimdShaSigma2            0      0.00%     72.48% # Class of executed instruction
system.switch_cpus.op_class::SimdShaSigma3            0      0.00%     72.48% # Class of executed instruction
system.switch_cpus.op_class::SimdPredAlu            0      0.00%     72.48% # Class of executed instruction
system.switch_cpus.op_class::MemRead          1115626      5.80%     78.28% # Class of executed instruction
system.switch_cpus.op_class::MemWrite          842245      4.38%     82.66% # Class of executed instruction
system.switch_cpus.op_class::FloatMemRead      2226709     11.58%     94.24% # Class of executed instruction
system.switch_cpus.op_class::FloatMemWrite      1108054      5.76%    100.00% # Class of executed instruction
system.switch_cpus.op_class::IprAccess              0      0.00%    100.00% # Class of executed instruction
system.switch_cpus.op_class::InstPrefetch            0      0.00%    100.00% # Class of executed instruction
system.switch_cpus.op_class::total           19230825                       # Class of executed instruction
system.tol2bus.snoop_filter.hit_multi_requests            0                       # Number of requests hitting in the snoop filter with multiple (>1) holders of the requested data.
system.tol2bus.snoop_filter.hit_multi_snoops            0                       # Number of snoops hitting in the snoop filter with multiple (>1) holders of the requested data.
system.tol2bus.snoop_filter.hit_single_requests       252162                       # Number of requests hitting in the snoop filter with a single holder of the requested data.
system.tol2bus.snoop_filter.hit_single_snoops         3108                       # Number of snoops hitting in the snoop filter with a single holder of the requested data.
system.tol2bus.snoop_filter.tot_requests       505649                       # Total number of requests made to the snoop filter.
system.tol2bus.snoop_filter.tot_snoops           3108                       # Total number of snoops made to the snoop filter.
system.membus.pwrStateResidencyTicks::UNDEFINED 1764547131500                       # Cumulative time (in ticks) in various power states
system.membus.trans_dist::ReadResp             126761                       # Transaction distribution
system.membus.trans_dist::WritebackDirty       121851                       # Transaction distribution
system.membus.trans_dist::CleanEvict           122353                       # Transaction distribution
system.membus.trans_dist::ReadExReq            125940                       # Transaction distribution
system.membus.trans_dist::ReadExResp           125940                       # Transaction distribution
system.membus.trans_dist::ReadSharedReq        126761                       # Transaction distribution
system.membus.pkt_count_system.l2.mem_side::system.mem_ctrls.port       749606                       # Packet count per connected master and slave (bytes)
system.membus.pkt_count_system.l2.mem_side::total       749606                       # Packet count per connected master and slave (bytes)
system.membus.pkt_count::total                 749606                       # Packet count per connected master and slave (bytes)
system.membus.pkt_size_system.l2.mem_side::system.mem_ctrls.port     23971328                       # Cumulative packet size per connected master and slave (bytes)
system.membus.pkt_size_system.l2.mem_side::total     23971328                       # Cumulative packet size per connected master and slave (bytes)
system.membus.pkt_size::total                23971328                       # Cumulative packet size per connected master and slave (bytes)
system.membus.snoops                                0                       # Total snoops (count)
system.membus.snoopTraffic                          0                       # Total snoop traffic (bytes)
system.membus.snoop_fanout::samples            252701                       # Request fanout histogram
system.membus.snoop_fanout::mean                    0                       # Request fanout histogram
system.membus.snoop_fanout::stdev                   0                       # Request fanout histogram
system.membus.snoop_fanout::underflows              0      0.00%      0.00% # Request fanout histogram
system.membus.snoop_fanout::0                  252701    100.00%    100.00% # Request fanout histogram
system.membus.snoop_fanout::1                       0      0.00%    100.00% # Request fanout histogram
system.membus.snoop_fanout::overflows               0      0.00%    100.00% # Request fanout histogram
system.membus.snoop_fanout::min_value               0                       # Request fanout histogram
system.membus.snoop_fanout::max_value               0                       # Request fanout histogram
system.membus.snoop_fanout::total              252701                       # Request fanout histogram
system.membus.reqLayer2.occupancy                8500                       # Layer occupancy (ticks)
system.membus.reqLayer2.utilization               0.0                       # Layer utilization (%)
system.membus.respLayer1.occupancy              41500                       # Layer occupancy (ticks)
system.membus.respLayer1.utilization              0.0                       # Layer utilization (%)
system.switch_cpus.numPwrStateTransitions            1                       # Number of power state transitions
system.switch_cpus.pwrStateResidencyTicks::UNDEFINED 1752622858750                       # Cumulative time (in ticks) in various power states
system.switch_cpus.pwrStateResidencyTicks::OFF  11924272750                       # Cumulative time (in ticks) in various power states
system.switch_cpus.dtb.walker.pwrStateResidencyTicks::UNDEFINED 1764547131500                       # Cumulative time (in ticks) in various power states
system.switch_cpus.itb.walker.pwrStateResidencyTicks::UNDEFINED 1764547131500                       # Cumulative time (in ticks) in various power states
system.tol2bus.pwrStateResidencyTicks::UNDEFINED 1764547131500                       # Cumulative time (in ticks) in various power states
system.tol2bus.trans_dist::ReadResp            127544                       # Transaction distribution
system.tol2bus.trans_dist::WritebackDirty       125544                       # Transaction distribution
system.tol2bus.trans_dist::WritebackClean          504                       # Transaction distribution
system.tol2bus.trans_dist::CleanEvict          126114                       # Transaction distribution
system.tol2bus.trans_dist::ReadExReq           125943                       # Transaction distribution
system.tol2bus.trans_dist::ReadExResp          125943                       # Transaction distribution
system.tol2bus.trans_dist::ReadCleanReq           805                       # Transaction distribution
system.tol2bus.trans_dist::ReadSharedReq       126739                       # Transaction distribution
system.tol2bus.pkt_count_system.cpu.icache.mem_side::system.l2.cpu_side         2114                       # Packet count per connected master and slave (bytes)
system.tol2bus.pkt_count_system.cpu.dcache.mem_side::system.l2.cpu_side       757022                       # Packet count per connected master and slave (bytes)
system.tol2bus.pkt_count::total                759136                       # Packet count per connected master and slave (bytes)
system.tol2bus.pkt_size_system.cpu.icache.mem_side::system.l2.cpu_side        83776                       # Cumulative packet size per connected master and slave (bytes)
system.tol2bus.pkt_size_system.cpu.dcache.mem_side::system.l2.cpu_side     24206464                       # Cumulative packet size per connected master and slave (bytes)
system.tol2bus.pkt_size::total               24290240                       # Cumulative packet size per connected master and slave (bytes)
system.tol2bus.snoops                          246021                       # Total snoops (count)
system.tol2bus.snoopTraffic                   7798464                       # Total snoop traffic (bytes)
system.tol2bus.snoop_fanout::samples           499508                       # Request fanout histogram
system.tol2bus.snoop_fanout::mean            0.006222                       # Request fanout histogram
system.tol2bus.snoop_fanout::stdev           0.078635                       # Request fanout histogram
system.tol2bus.snoop_fanout::underflows             0      0.00%      0.00% # Request fanout histogram
system.tol2bus.snoop_fanout::0                 496400     99.38%     99.38% # Request fanout histogram
system.tol2bus.snoop_fanout::1                   3108      0.62%    100.00% # Request fanout histogram
system.tol2bus.snoop_fanout::2                      0      0.00%    100.00% # Request fanout histogram
system.tol2bus.snoop_fanout::3                      0      0.00%    100.00% # Request fanout histogram
system.tol2bus.snoop_fanout::4                      0      0.00%    100.00% # Request fanout histogram
system.tol2bus.snoop_fanout::overflows              0      0.00%    100.00% # Request fanout histogram
system.tol2bus.snoop_fanout::min_value              0                       # Request fanout histogram
system.tol2bus.snoop_fanout::max_value              1                       # Request fanout histogram
system.tol2bus.snoop_fanout::total             499508                       # Request fanout histogram
system.tol2bus.reqLayer0.occupancy               4000                       # Layer occupancy (ticks)
system.tol2bus.reqLayer0.utilization              0.0                       # Layer utilization (%)
system.tol2bus.respLayer1.occupancy              6000                       # Layer occupancy (ticks)
system.tol2bus.respLayer1.utilization             0.0                       # Layer utilization (%)
system.tol2bus.respLayer0.occupancy              6000                       # Layer occupancy (ticks)
system.tol2bus.respLayer0.utilization             0.0                       # Layer utilization (%)
system.voltage_domain.voltage                       1                       # Voltage in Volts
system.clk_domain.clock                          1000                       # Clock period in ticks
system.l2.pwrStateResidencyTicks::UNDEFINED 1764547131500                       # Cumulative time (in ticks) in various power states
system.l2.demand_hits::.switch_cpus.inst          486                       # number of demand (read+write) hits
system.l2.demand_hits::.switch_cpus.data          300                       # number of demand (read+write) hits
system.l2.demand_hits::total                      786                       # number of demand (read+write) hits
system.l2.overall_hits::.switch_cpus.inst          486                       # number of overall hits
system.l2.overall_hits::.switch_cpus.data          300                       # number of overall hits
system.l2.overall_hits::total                     786                       # number of overall hits
system.l2.demand_misses::.cpu.inst                  4                       # number of demand (read+write) misses
system.l2.demand_misses::.cpu.data                  4                       # number of demand (read+write) misses
system.l2.demand_misses::.switch_cpus.inst          315                       # number of demand (read+write) misses
system.l2.demand_misses::.switch_cpus.data       252378                       # number of demand (read+write) misses
system.l2.demand_misses::total                 252701                       # number of demand (read+write) misses
system.l2.overall_misses::.cpu.inst                 4                       # number of overall misses
system.l2.overall_misses::.cpu.data                 4                       # number of overall misses
system.l2.overall_misses::.switch_cpus.inst          315                       # number of overall misses
system.l2.overall_misses::.switch_cpus.data       252378                       # number of overall misses
system.l2.overall_misses::total                252701                       # number of overall misses
system.l2.demand_miss_latency::.cpu.inst       293000                       # number of demand (read+write) miss cycles
system.l2.demand_miss_latency::.cpu.data       339000                       # number of demand (read+write) miss cycles
system.l2.demand_miss_latency::total           632000                       # number of demand (read+write) miss cycles
system.l2.overall_miss_latency::.cpu.inst       293000                       # number of overall miss cycles
system.l2.overall_miss_latency::.cpu.data       339000                       # number of overall miss cycles
system.l2.overall_miss_latency::total          632000                       # number of overall miss cycles
system.l2.demand_accesses::.cpu.inst                4                       # number of demand (read+write) accesses
system.l2.demand_accesses::.cpu.data                4                       # number of demand (read+write) accesses
system.l2.demand_accesses::.switch_cpus.inst          801                       # number of demand (read+write) accesses
system.l2.demand_accesses::.switch_cpus.data       252678                       # number of demand (read+write) accesses
system.l2.demand_accesses::total               253487                       # number of demand (read+write) accesses
system.l2.overall_accesses::.cpu.inst               4                       # number of overall (read+write) accesses
system.l2.overall_accesses::.cpu.data               4                       # number of overall (read+write) accesses
system.l2.overall_accesses::.switch_cpus.inst          801                       # number of overall (read+write) accesses
system.l2.overall_accesses::.switch_cpus.data       252678                       # number of overall (read+write) accesses
system.l2.overall_accesses::total              253487                       # number of overall (read+write) accesses
system.l2.demand_miss_rate::.cpu.inst               1                       # miss rate for demand accesses
system.l2.demand_miss_rate::.cpu.data               1                       # miss rate for demand accesses
system.l2.demand_miss_rate::.switch_cpus.inst     0.393258                       # miss rate for demand accesses
system.l2.demand_miss_rate::.switch_cpus.data     0.998813                       # miss rate for demand accesses
system.l2.demand_miss_rate::total            0.996899                       # miss rate for demand accesses
system.l2.overall_miss_rate::.cpu.inst              1                       # miss rate for overall accesses
system.l2.overall_miss_rate::.cpu.data              1                       # miss rate for overall accesses
system.l2.overall_miss_rate::.switch_cpus.inst     0.393258                       # miss rate for overall accesses
system.l2.overall_miss_rate::.switch_cpus.data     0.998813                       # miss rate for overall accesses
system.l2.overall_miss_rate::total           0.996899                       # miss rate for overall accesses
system.l2.demand_avg_miss_latency::.cpu.inst        73250                       # average overall miss latency
system.l2.demand_avg_miss_latency::.cpu.data        84750                       # average overall miss latency
system.l2.demand_avg_miss_latency::total     2.500979                       # average overall miss latency
system.l2.overall_avg_miss_latency::.cpu.inst        73250                       # average overall miss latency
system.l2.overall_avg_miss_latency::.cpu.data        84750                       # average overall miss latency
system.l2.overall_avg_miss_latency::total     2.500979                       # average overall miss latency
system.l2.blocked_cycles::no_mshrs                  0                       # number of cycles access was blocked
system.l2.blocked_cycles::no_targets                0                       # number of cycles access was blocked
system.l2.blocked::no_mshrs                         0                       # number of cycles access was blocked
system.l2.blocked::no_targets                       0                       # number of cycles access was blocked
system.l2.avg_blocked_cycles::no_mshrs            nan                       # average number of cycles each access was blocked
system.l2.avg_blocked_cycles::no_targets          nan                       # average number of cycles each access was blocked
system.l2.writebacks::.writebacks              121851                       # number of writebacks
system.l2.writebacks::total                    121851                       # number of writebacks
system.l2.demand_mshr_misses::.cpu.inst             4                       # number of demand (read+write) MSHR misses
system.l2.demand_mshr_misses::.cpu.data             4                       # number of demand (read+write) MSHR misses
system.l2.demand_mshr_misses::total                 8                       # number of demand (read+write) MSHR misses
system.l2.overall_mshr_misses::.cpu.inst            4                       # number of overall MSHR misses
system.l2.overall_mshr_misses::.cpu.data            4                       # number of overall MSHR misses
system.l2.overall_mshr_misses::total                8                       # number of overall MSHR misses
system.l2.demand_mshr_miss_latency::.cpu.inst       253000                       # number of demand (read+write) MSHR miss cycles
system.l2.demand_mshr_miss_latency::.cpu.data       299000                       # number of demand (read+write) MSHR miss cycles
system.l2.demand_mshr_miss_latency::total       552000                       # number of demand (read+write) MSHR miss cycles
system.l2.overall_mshr_miss_latency::.cpu.inst       253000                       # number of overall MSHR miss cycles
system.l2.overall_mshr_miss_latency::.cpu.data       299000                       # number of overall MSHR miss cycles
system.l2.overall_mshr_miss_latency::total       552000                       # number of overall MSHR miss cycles
system.l2.demand_mshr_miss_rate::.cpu.inst            1                       # mshr miss rate for demand accesses
system.l2.demand_mshr_miss_rate::.cpu.data            1                       # mshr miss rate for demand accesses
system.l2.demand_mshr_miss_rate::total       0.000032                       # mshr miss rate for demand accesses
system.l2.overall_mshr_miss_rate::.cpu.inst            1                       # mshr miss rate for overall accesses
system.l2.overall_mshr_miss_rate::.cpu.data            1                       # mshr miss rate for overall accesses
system.l2.overall_mshr_miss_rate::total      0.000032                       # mshr miss rate for overall accesses
system.l2.demand_avg_mshr_miss_latency::.cpu.inst        63250                       # average overall mshr miss latency
system.l2.demand_avg_mshr_miss_latency::.cpu.data        74750                       # average overall mshr miss latency
system.l2.demand_avg_mshr_miss_latency::total        69000                       # average overall mshr miss latency
system.l2.overall_avg_mshr_miss_latency::.cpu.inst        63250                       # average overall mshr miss latency
system.l2.overall_avg_mshr_miss_latency::.cpu.data        74750                       # average overall mshr miss latency
system.l2.overall_avg_mshr_miss_latency::total        69000                       # average overall mshr miss latency
system.l2.replacements                         246021                       # number of replacements
system.l2.WritebackDirty_hits::.writebacks       125544                       # number of WritebackDirty hits
system.l2.WritebackDirty_hits::total           125544                       # number of WritebackDirty hits
system.l2.WritebackDirty_accesses::.writebacks       125544                       # number of WritebackDirty accesses(hits+misses)
system.l2.WritebackDirty_accesses::total       125544                       # number of WritebackDirty accesses(hits+misses)
system.l2.WritebackClean_hits::.writebacks          504                       # number of WritebackClean hits
system.l2.WritebackClean_hits::total              504                       # number of WritebackClean hits
system.l2.WritebackClean_accesses::.writebacks          504                       # number of WritebackClean accesses(hits+misses)
system.l2.WritebackClean_accesses::total          504                       # number of WritebackClean accesses(hits+misses)
system.l2.ReadExReq_hits::.switch_cpus.data            3                       # number of ReadExReq hits
system.l2.ReadExReq_hits::total                     3                       # number of ReadExReq hits
system.l2.ReadExReq_misses::.switch_cpus.data       125940                       # number of ReadExReq misses
system.l2.ReadExReq_misses::total              125940                       # number of ReadExReq misses
system.l2.ReadExReq_accesses::.switch_cpus.data       125943                       # number of ReadExReq accesses(hits+misses)
system.l2.ReadExReq_accesses::total            125943                       # number of ReadExReq accesses(hits+misses)
system.l2.ReadExReq_miss_rate::.switch_cpus.data     0.999976                       # miss rate for ReadExReq accesses
system.l2.ReadExReq_miss_rate::total         0.999976                       # miss rate for ReadExReq accesses
system.l2.ReadCleanReq_hits::.switch_cpus.inst          486                       # number of ReadCleanReq hits
system.l2.ReadCleanReq_hits::total                486                       # number of ReadCleanReq hits
system.l2.ReadCleanReq_misses::.cpu.inst            4                       # number of ReadCleanReq misses
system.l2.ReadCleanReq_misses::.switch_cpus.inst          315                       # number of ReadCleanReq misses
system.l2.ReadCleanReq_misses::total              319                       # number of ReadCleanReq misses
system.l2.ReadCleanReq_miss_latency::.cpu.inst       293000                       # number of ReadCleanReq miss cycles
system.l2.ReadCleanReq_miss_latency::total       293000                       # number of ReadCleanReq miss cycles
system.l2.ReadCleanReq_accesses::.cpu.inst            4                       # number of ReadCleanReq accesses(hits+misses)
system.l2.ReadCleanReq_accesses::.switch_cpus.inst          801                       # number of ReadCleanReq accesses(hits+misses)
system.l2.ReadCleanReq_accesses::total            805                       # number of ReadCleanReq accesses(hits+misses)
system.l2.ReadCleanReq_miss_rate::.cpu.inst            1                       # miss rate for ReadCleanReq accesses
system.l2.ReadCleanReq_miss_rate::.switch_cpus.inst     0.393258                       # miss rate for ReadCleanReq accesses
system.l2.ReadCleanReq_miss_rate::total      0.396273                       # miss rate for ReadCleanReq accesses
system.l2.ReadCleanReq_avg_miss_latency::.cpu.inst        73250                       # average ReadCleanReq miss latency
system.l2.ReadCleanReq_avg_miss_latency::total   918.495298                       # average ReadCleanReq miss latency
system.l2.ReadCleanReq_mshr_misses::.cpu.inst            4                       # number of ReadCleanReq MSHR misses
system.l2.ReadCleanReq_mshr_misses::total            4                       # number of ReadCleanReq MSHR misses
system.l2.ReadCleanReq_mshr_miss_latency::.cpu.inst       253000                       # number of ReadCleanReq MSHR miss cycles
system.l2.ReadCleanReq_mshr_miss_latency::total       253000                       # number of ReadCleanReq MSHR miss cycles
system.l2.ReadCleanReq_mshr_miss_rate::.cpu.inst            1                       # mshr miss rate for ReadCleanReq accesses
system.l2.ReadCleanReq_mshr_miss_rate::total     0.004969                       # mshr miss rate for ReadCleanReq accesses
system.l2.ReadCleanReq_avg_mshr_miss_latency::.cpu.inst        63250                       # average ReadCleanReq mshr miss latency
system.l2.ReadCleanReq_avg_mshr_miss_latency::total        63250                       # average ReadCleanReq mshr miss latency
system.l2.ReadSharedReq_hits::.switch_cpus.data          297                       # number of ReadSharedReq hits
system.l2.ReadSharedReq_hits::total               297                       # number of ReadSharedReq hits
system.l2.ReadSharedReq_misses::.cpu.data            4                       # number of ReadSharedReq misses
system.l2.ReadSharedReq_misses::.switch_cpus.data       126438                       # number of ReadSharedReq misses
system.l2.ReadSharedReq_misses::total          126442                       # number of ReadSharedReq misses
system.l2.ReadSharedReq_miss_latency::.cpu.data       339000                       # number of ReadSharedReq miss cycles
system.l2.ReadSharedReq_miss_latency::total       339000                       # number of ReadSharedReq miss cycles
system.l2.ReadSharedReq_accesses::.cpu.data            4                       # number of ReadSharedReq accesses(hits+misses)
system.l2.ReadSharedReq_accesses::.switch_cpus.data       126735                       # number of ReadSharedReq accesses(hits+misses)
system.l2.ReadSharedReq_accesses::total        126739                       # number of ReadSharedReq accesses(hits+misses)
system.l2.ReadSharedReq_miss_rate::.cpu.data            1                       # miss rate for ReadSharedReq accesses
system.l2.ReadSharedReq_miss_rate::.switch_cpus.data     0.997657                       # miss rate for ReadSharedReq accesses
system.l2.ReadSharedReq_miss_rate::total     0.997657                       # miss rate for ReadSharedReq accesses
system.l2.ReadSharedReq_avg_miss_latency::.cpu.data        84750                       # average ReadSharedReq miss latency
system.l2.ReadSharedReq_avg_miss_latency::total     2.681071                       # average ReadSharedReq miss latency
system.l2.ReadSharedReq_mshr_misses::.cpu.data            4                       # number of ReadSharedReq MSHR misses
system.l2.ReadSharedReq_mshr_misses::total            4                       # number of ReadSharedReq MSHR misses
system.l2.ReadSharedReq_mshr_miss_latency::.cpu.data       299000                       # number of ReadSharedReq MSHR miss cycles
system.l2.ReadSharedReq_mshr_miss_latency::total       299000                       # number of ReadSharedReq MSHR miss cycles
system.l2.ReadSharedReq_mshr_miss_rate::.cpu.data            1                       # mshr miss rate for ReadSharedReq accesses
system.l2.ReadSharedReq_mshr_miss_rate::total     0.000032                       # mshr miss rate for ReadSharedReq accesses
system.l2.ReadSharedReq_avg_mshr_miss_latency::.cpu.data        74750                       # average ReadSharedReq mshr miss latency
system.l2.ReadSharedReq_avg_mshr_miss_latency::total        74750                       # average ReadSharedReq mshr miss latency
system.l2.tags.pwrStateResidencyTicks::UNDEFINED 1764547131500                       # Cumulative time (in ticks) in various power states
system.l2.tags.tagsinuse                  6490.754369                       # Cycle average of tags in use
system.l2.tags.total_refs                      488937                       # Total number of references to valid blocks.
system.l2.tags.sampled_refs                    246021                       # Sample count of references to valid blocks.
system.l2.tags.avg_refs                      1.987379                       # Average number of references to valid blocks.
system.l2.tags.warmup_cycle              1752622935000                       # Cycle when the warmup percentage was hit.
system.l2.tags.occ_blocks::.writebacks      12.580446                       # Average occupied blocks per requestor
system.l2.tags.occ_blocks::.cpu.inst         1.593822                       # Average occupied blocks per requestor
[...]
system.mem_ctrls.rank0.actPowerDownEnergy            0                       # Energy for active power-down per rank (pJ)
system.mem_ctrls.rank0.prePowerDownEnergy            0                       # Energy for precharge power-down per rank (pJ)
system.mem_ctrls.rank0.selfRefreshEnergy            0                       # Energy for self refresh per rank (pJ)
system.mem_ctrls.rank0.totalEnergy        16504353600                       # Total energy per rank (pJ)
system.mem_ctrls.rank0.averagePower        383.999996                       # Core power per rank (mW)
system.mem_ctrls.rank0.totalIdleTime                0                       # Total Idle time Per DRAM Rank
system.mem_ctrls.rank0.memoryStateTime::IDLE  42980088000                       # Time in different power states
system.mem_ctrls.rank0.memoryStateTime::REF            0                       # Time in different power states
system.mem_ctrls.rank0.memoryStateTime::SREF            0                       # Time in different power states
system.mem_ctrls.rank0.memoryStateTime::PRE_PDN            0                       # Time in different power states
system.mem_ctrls.rank0.memoryStateTime::ACT            0                       # Time in different power states
system.mem_ctrls.rank0.memoryStateTime::ACT_PDN            0                       # Time in different power states
system.cpu_clk_domain.clock                       500                       # Clock period in ticks
system.cpu.pwrStateResidencyTicks::OFF    42980088000                       # Cumulative time (in ticks) in various power states
system.cpu.icache.pwrStateResidencyTicks::UNDEFINED  42980088000                       # Cumulative time (in ticks) in various power states
system.cpu.icache.demand_hits::.switch_cpus.inst     49631639                       # number of demand (read+write) hits
system.cpu.icache.demand_hits::total         49631639                       # number of demand (read+write) hits
system.cpu.icache.overall_hits::.switch_cpus.inst     49631639                       # number of overall hits
system.cpu.icache.overall_hits::total        49631639                       # number of overall hits
system.cpu.icache.demand_misses::.switch_cpus.inst         2650                       # number of demand (read+write) misses
system.cpu.icache.demand_misses::total           2650                       # number of demand (read+write) misses
system.cpu.icache.overall_misses::.switch_cpus.inst         2650                       # number of overall misses
system.cpu.icache.overall_misses::total          2650                       # number of overall misses
system.cpu.icache.demand_accesses::.switch_cpus.inst     49634289                       # number of demand (read+write) accesses
system.cpu.icache.demand_accesses::total     49634289                       # number of demand (read+write) accesses
system.cpu.icache.overall_accesses::.switch_cpus.inst     49634289                       # number of overall (read+write) accesses
system.cpu.icache.overall_accesses::total     49634289                       # number of overall (read+write) accesses
system.cpu.icache.demand_miss_rate::.switch_cpus.inst     0.000053                       # miss rate for demand accesses
system.cpu.icache.demand_miss_rate::total     0.000053                       # miss rate for demand accesses
system.cpu.icache.overall_miss_rate::.switch_cpus.inst     0.000053                       # miss rate for overall accesses
system.cpu.icache.overall_miss_rate::total     0.000053                       # miss rate for overall accesses
system.cpu.icache.blocked_cycles::no_mshrs            0                       # number of cycles access was blocked
system.cpu.icache.blocked_cycles::no_targets            0                       # number of cycles access was blocked
system.cpu.icache.blocked::no_mshrs                 0                       # number of cycles access was blocked
system.cpu.icache.blocked::no_targets               0                       # number of cycles access was blocked
system.cpu.icache.avg_blocked_cycles::no_mshrs          nan                       # average number of cycles each access was blocked
system.cpu.icache.avg_blocked_cycles::no_targets          nan                       # average number of cycles each access was blocked
system.cpu.icache.writebacks::.writebacks         2439                       # number of writebacks
system.cpu.icache.writebacks::total              2439                       # number of writebacks
system.cpu.icache.replacements                   2439                       # number of replacements
system.cpu.icache.ReadReq_hits::.switch_cpus.inst     49631639                       # number of ReadReq hits
system.cpu.icache.ReadReq_hits::total        49631639                       # number of ReadReq hits
system.cpu.icache.ReadReq_misses::.switch_cpus.inst         2650                       # number of ReadReq misses
system.cpu.icache.ReadReq_misses::total          2650                       # number of ReadReq misses
system.cpu.icache.ReadReq_accesses::.switch_cpus.inst     49634289                       # number of ReadReq accesses(hits+misses)
system.cpu.icache.ReadReq_accesses::total     49634289                       # number of ReadReq accesses(hits+misses)
system.cpu.icache.ReadReq_miss_rate::.switch_cpus.inst     0.000053                       # miss rate for ReadReq accesses
system.cpu.icache.ReadReq_miss_rate::total     0.000053                       # miss rate for ReadReq accesses
system.cpu.icache.tags.pwrStateResidencyTicks::UNDEFINED  42980088000                       # Cumulative time (in ticks) in various power states
system.cpu.icache.tags.tagsinuse           503.937315                       # Cycle average of tags in use
system.cpu.icache.tags.total_refs            58858698                       # Total number of references to valid blocks.
system.cpu.icache.tags.sampled_refs              2951                       # Sample count of references to valid blocks.
system.cpu.icache.tags.avg_refs          19945.339885                       # Average number of references to valid blocks.
system.cpu.icache.tags.warmup_cycle                 0                       # Cycle when the warmup percentage was hit.
system.cpu.icache.tags.occ_blocks::.cpu.inst     0.035265                       # Average occupied blocks per requestor
system.cpu.icache.tags.occ_blocks::.switch_cpus.inst   503.902049                       # Average occupied blocks per requestor
system.cpu.icache.tags.occ_percent::.cpu.inst     0.000069                       # Average percentage of cache occupancy
system.cpu.icache.tags.occ_percent::.switch_cpus.inst     0.984184                       # Average percentage of cache occupancy
system.cpu.icache.tags.occ_percent::total     0.984253                       # Average percentage of cache occupancy
system.cpu.icache.tags.occ_task_id_blocks::1024          512                       # Occupied blocks per task id
system.cpu.icache.tags.age_task_id_blocks_1024::1            5                       # Occupied blocks per task id
system.cpu.icache.tags.age_task_id_blocks_1024::2            4                       # Occupied blocks per task id
system.cpu.icache.tags.age_task_id_blocks_1024::4          503                       # Occupied blocks per task id
system.cpu.icache.tags.occ_task_id_percent::1024            1                       # Percentage of cache occupancy per task id
system.cpu.icache.tags.tag_accesses          99271228                       # Number of tag accesses
system.cpu.icache.tags.data_accesses         99271228                       # Number of data accesses
system.cpu.dtb.walker.pwrStateResidencyTicks::UNDEFINED  42980088000                       # Cumulative time (in ticks) in various power states
system.cpu.interrupts.clk_domain.clock           8000                       # Clock period in ticks
system.cpu.itb_walker_cache.pwrStateResidencyTicks::UNDEFINED  42980088000                       # Cumulative time (in ticks) in various power states
system.cpu.itb_walker_cache.blocked_cycles::no_mshrs            0                       # number of cycles access was blocked
system.cpu.itb_walker_cache.blocked_cycles::no_targets            0                       # number of cycles access was blocked
system.cpu.itb_walker_cache.blocked::no_mshrs            0                       # number of cycles access was blocked
system.cpu.itb_walker_cache.blocked::no_targets            0                       # number of cycles access was blocked
system.cpu.itb_walker_cache.avg_blocked_cycles::no_mshrs          nan                       # average number of cycles each access was blocked
system.cpu.itb_walker_cache.avg_blocked_cycles::no_targets          nan                       # average number of cycles each access was blocked
system.cpu.itb_walker_cache.replacements            0                       # number of replacements
system.cpu.itb_walker_cache.tags.pwrStateResidencyTicks::UNDEFINED  42980088000                       # Cumulative time (in ticks) in various power states
system.cpu.itb_walker_cache.tags.tagsinuse            0                       # Cycle average of tags in use
system.cpu.itb_walker_cache.tags.total_refs            0                       # Total number of references to valid blocks.
system.cpu.itb_walker_cache.tags.sampled_refs            0                       # Sample count of references to valid blocks.
system.cpu.itb_walker_cache.tags.avg_refs          nan                       # Average number of references to valid blocks.
system.cpu.itb_walker_cache.tags.warmup_cycle            0                       # Cycle when the warmup percentage was hit.
system.cpu.itb_walker_cache.tags.tag_accesses            0                       # Number of tag accesses
system.cpu.itb_walker_cache.tags.data_accesses            0                       # Number of data accesses
system.cpu.itb.walker.pwrStateResidencyTicks::UNDEFINED  42980088000                       # Cumulative time (in ticks) in various power states
system.cpu.dtb_walker_cache.pwrStateResidencyTicks::UNDEFINED  42980088000                       # Cumulative time (in ticks) in various power states
system.cpu.dtb_walker_cache.blocked_cycles::no_mshrs            0                       # number of cycles access was blocked
system.cpu.dtb_walker_cache.blocked_cycles::no_targets            0                       # number of cycles access was blocked
system.cpu.dtb_walker_cache.blocked::no_mshrs            0                       # number of cycles access was blocked
system.cpu.dtb_walker_cache.blocked::no_targets            0                       # number of cycles access was blocked
system.cpu.dtb_walker_cache.avg_blocked_cycles::no_mshrs          nan                       # average number of cycles each access was blocked
system.cpu.dtb_walker_cache.avg_blocked_cycles::no_targets          nan                       # average number of cycles each access was blocked
system.cpu.dtb_walker_cache.replacements            0                       # number of replacements
system.cpu.dtb_walker_cache.tags.pwrStateResidencyTicks::UNDEFINED  42980088000                       # Cumulative time (in ticks) in various power states
system.cpu.dtb_walker_cache.tags.tagsinuse            0                       # Cycle average of tags in use
system.cpu.dtb_walker_cache.tags.total_refs            0                       # Total number of references to valid blocks.
system.cpu.dtb_walker_cache.tags.sampled_refs            0                       # Sample count of references to valid blocks.
system.cpu.dtb_walker_cache.tags.avg_refs          nan                       # Average number of references to valid blocks.
system.cpu.dtb_walker_cache.tags.warmup_cycle            0                       # Cycle when the warmup percentage was hit.
system.cpu.dtb_walker_cache.tags.tag_accesses            0                       # Number of tag accesses
system.cpu.dtb_walker_cache.tags.data_accesses            0                       # Number of data accesses
system.cpu.dcache.pwrStateResidencyTicks::UNDEFINED  42980088000                       # Cumulative time (in ticks) in various power states
system.cpu.dcache.demand_hits::.switch_cpus.data     27449882                       # number of demand (read+write) hits
system.cpu.dcache.demand_hits::total         27449882                       # number of demand (read+write) hits
system.cpu.dcache.overall_hits::.switch_cpus.data     27483404                       # number of overall hits
system.cpu.dcache.overall_hits::total        27483404                       # number of overall hits
system.cpu.dcache.demand_misses::.switch_cpus.data       426133                       # number of demand (read+write) misses
system.cpu.dcache.demand_misses::total         426133                       # number of demand (read+write) misses
system.cpu.dcache.overall_misses::.switch_cpus.data       439875                       # number of overall misses
system.cpu.dcache.overall_misses::total        439875                       # number of overall misses
system.cpu.dcache.demand_accesses::.switch_cpus.data     27876015                       # number of demand (read+write) accesses
system.cpu.dcache.demand_accesses::total     27876015                       # number of demand (read+write) accesses
system.cpu.dcache.overall_accesses::.switch_cpus.data     27923279                       # number of overall (read+write) accesses
system.cpu.dcache.overall_accesses::total     27923279                       # number of overall (read+write) accesses
system.cpu.dcache.demand_miss_rate::.switch_cpus.data     0.015287                       # miss rate for demand accesses
system.cpu.dcache.demand_miss_rate::total     0.015287                       # miss rate for demand accesses
system.cpu.dcache.overall_miss_rate::.switch_cpus.data     0.015753                       # miss rate for overall accesses
system.cpu.dcache.overall_miss_rate::total     0.015753                       # miss rate for overall accesses
system.cpu.dcache.blocked_cycles::no_mshrs            0                       # number of cycles access was blocked
system.cpu.dcache.blocked_cycles::no_targets            0                       # number of cycles access was blocked
system.cpu.dcache.blocked::no_mshrs                 0                       # number of cycles access was blocked
system.cpu.dcache.blocked::no_targets               0                       # number of cycles access was blocked
system.cpu.dcache.avg_blocked_cycles::no_mshrs          nan                       # average number of cycles each access was blocked
system.cpu.dcache.avg_blocked_cycles::no_targets          nan                       # average number of cycles each access was blocked
system.cpu.dcache.writebacks::.writebacks       195049                       # number of writebacks
system.cpu.dcache.writebacks::total            195049                       # number of writebacks
system.cpu.dcache.replacements                 439875                       # number of replacements
system.cpu.dcache.ReadReq_hits::.switch_cpus.data     20862907                       # number of ReadReq hits
system.cpu.dcache.ReadReq_hits::total        20862907                       # number of ReadReq hits
system.cpu.dcache.ReadReq_misses::.switch_cpus.data       263126                       # number of ReadReq misses
system.cpu.dcache.ReadReq_misses::total        263126                       # number of ReadReq misses
system.cpu.dcache.ReadReq_accesses::.switch_cpus.data     21126033                       # number of ReadReq accesses(hits+misses)
system.cpu.dcache.ReadReq_accesses::total     21126033                       # number of ReadReq accesses(hits+misses)
system.cpu.dcache.ReadReq_miss_rate::.switch_cpus.data     0.012455                       # miss rate for ReadReq accesses
system.cpu.dcache.ReadReq_miss_rate::total     0.012455                       # miss rate for ReadReq accesses
system.cpu.dcache.WriteReq_hits::.switch_cpus.data      6586975                       # number of WriteReq hits
system.cpu.dcache.WriteReq_hits::total        6586975                       # number of WriteReq hits
system.cpu.dcache.WriteReq_misses::.switch_cpus.data       163007                       # number of WriteReq misses
system.cpu.dcache.WriteReq_misses::total       163007                       # number of WriteReq misses
system.cpu.dcache.WriteReq_accesses::.switch_cpus.data      6749982                       # number of WriteReq accesses(hits+misses)
system.cpu.dcache.WriteReq_accesses::total      6749982                       # number of WriteReq accesses(hits+misses)
system.cpu.dcache.WriteReq_miss_rate::.switch_cpus.data     0.024149                       # miss rate for WriteReq accesses
system.cpu.dcache.WriteReq_miss_rate::total     0.024149                       # miss rate for WriteReq accesses
system.cpu.dcache.SoftPFReq_hits::.switch_cpus.data        33522                       # number of SoftPFReq hits
system.cpu.dcache.SoftPFReq_hits::total         33522                       # number of SoftPFReq hits
system.cpu.dcache.SoftPFReq_misses::.switch_cpus.data        13742                       # number of SoftPFReq misses
system.cpu.dcache.SoftPFReq_misses::total        13742                       # number of SoftPFReq misses
system.cpu.dcache.SoftPFReq_accesses::.switch_cpus.data        47264                       # number of SoftPFReq accesses(hits+misses)
system.cpu.dcache.SoftPFReq_accesses::total        47264                       # number of SoftPFReq accesses(hits+misses)
system.cpu.dcache.SoftPFReq_miss_rate::.switch_cpus.data     0.290750                       # miss rate for SoftPFReq accesses
system.cpu.dcache.SoftPFReq_miss_rate::total     0.290750                       # miss rate for SoftPFReq accesses
system.cpu.dcache.tags.pwrStateResidencyTicks::UNDEFINED  42980088000                       # Cumulative time (in ticks) in various power states
system.cpu.dcache.tags.tagsinuse                 1024                       # Cycle average of tags in use
system.cpu.dcache.tags.total_refs            28103302                       # Total number of references to valid blocks.
system.cpu.dcache.tags.sampled_refs            440899                       # Sample count of references to valid blocks.
system.cpu.dcache.tags.avg_refs             63.740907                       # Average number of references to valid blocks.
system.cpu.dcache.tags.warmup_cycle                 0                       # Cycle when the warmup percentage was hit.
system.cpu.dcache.tags.occ_blocks::.switch_cpus.data         1024                       # Average occupied blocks per requestor
system.cpu.dcache.tags.occ_percent::.switch_cpus.data            1                       # Average percentage of cache occupancy
system.cpu.dcache.tags.occ_percent::total            1                       # Average percentage of cache occupancy
system.cpu.dcache.tags.occ_task_id_blocks::1024         1024                       # Occupied blocks per task id
system.cpu.dcache.tags.age_task_id_blocks_1024::0           44                       # Occupied blocks per task id
system.cpu.dcache.tags.age_task_id_blocks_1024::1          858                       # Occupied blocks per task id
system.cpu.dcache.tags.age_task_id_blocks_1024::2          108                       # Occupied blocks per task id
system.cpu.dcache.tags.age_task_id_blocks_1024::3           14                       # Occupied blocks per task id
system.cpu.dcache.tags.occ_task_id_percent::1024            1                       # Percentage of cache occupancy per task id
system.cpu.dcache.tags.tag_accesses          56286433                       # Number of tag accesses
system.cpu.dcache.tags.data_accesses         56286433                       # Number of data accesses

---------- End Simulation Statistics   ----------
