
---------- Begin Simulation Statistics ----------
final_tick                               81939690320500                       # Number of ticks from beginning of simulation (restored from checkpoints and never reset)
host_inst_rate                                  53804                       # Simulator instruction rate (inst/s)
host_mem_usage                                 792420                       # Number of bytes of host memory used
host_op_rate                                    86298                       # Simulator op (including micro ops) rate (op/s)
host_seconds                                   185.86                       # Real time elapsed on the host
host_tick_rate                               14107653                       # Simulator tick rate (ticks/s)
sim_freq                                 1000000000000                       # Frequency of simulated ticks
sim_insts                                    10000011                       # Number of instructions simulated
sim_ops                                      16039482                       # Number of ops (including micro ops) simulated
sim_seconds                                  0.002622                       # Number of seconds simulated
sim_ticks                                  2622063000                       # Number of ticks simulated
system.cpu.committedInsts                          11                       # Number of instructions committed
system.cpu.committedOps                            16                       # Number of ops (including micro ops) committed
system.cpu.dtb.rdAccesses                           5                       # TLB accesses on read requests
system.cpu.dtb.rdMisses                             0                       # TLB misses on read requests
system.cpu.dtb.wrAccesses                           2                       # TLB accesses on write requests
system.cpu.dtb.wrMisses                             0                       # TLB misses on write requests
system.cpu.idle_fraction                            0                       # Percentage of idle cycles
system.cpu.itb.rdAccesses                           0                       # TLB accesses on read requests
system.cpu.itb.rdMisses                             0                       # TLB misses on read requests
system.cpu.itb.wrAccesses                          16                       # TLB accesses on write requests
system.cpu.itb.wrMisses                             0                       # TLB misses on write requests
system.cpu.not_idle_fraction                        1                       # Percentage of non-idle cycles
system.cpu.numCycles                               21                       # number of cpu cycles simulated
system.cpu.numWorkItemsCompleted                    0                       # number of work items this cpu completed
system.cpu.numWorkItemsStarted                      0                       # number of work items this cpu started
system.cpu.num_busy_cycles                         21                       # Number of busy cycles
system.cpu.num_cc_register_reads                   20                       # number of times the CC registers were read
system.cpu.num_cc_register_writes                   8                       # number of times the CC registers were written
system.cpu.num_conditional_control_insts            0                       # number of instructions that are conditional controls
system.cpu.num_fp_alu_accesses                      0                       # Number of float alu accesses
system.cpu.num_fp_insts                             0                       # number of float instructions
system.cpu.num_fp_register_reads                    0                       # number of times the floating registers were read
system.cpu.num_fp_register_writes                   0                       # number of times the floating registers were written
system.cpu.num_func_calls                           0                       # number of times a function call or return occured
system.cpu.num_idle_cycles                          0                       # Number of idle cycles
system.cpu.num_int_alu_accesses                    16                       # Number of integer alu accesses
system.cpu.num_int_insts                           16                       # number of integer instructions
system.cpu.num_int_register_reads                  43                       # number of times the integer registers were read
system.cpu.num_int_register_writes                 14                       # number of times the integer registers were written
system.cpu.num_load_insts                           5                       # Number of load instructions
system.cpu.num_mem_refs                             7                       # number of memory refs
system.cpu.num_store_insts                          2                       # Number of store instructions
system.cpu.num_vec_alu_accesses                     0                       # Number of vector alu accesses
system.cpu.num_vec_insts                            0                       # number of vector instructions
system.cpu.num_vec_register_reads                   0                       # number of times the vector registers were read
system.cpu.num_vec_register_writes                  0                       # number of times the vector registers were written
system.cpu.op_class::No_OpClass                     0      0.00%      0.00% # Class of executed instruction
system.cpu.op_class::IntAlu                         9     56.25%     56.25% # Class of executed instruction
system.cpu.op_class::IntMult                        0      0.00%     56.25% # Class of executed instruction
system.cpu.op_class::IntDiv                         0      0.00%     56.25% # Class of executed instruction
system.cpu.op_class::FloatAdd                       0      0.00%     56.25% # Class of executed instruction
system.cpu.op_class::FloatCmp                       0      0.00%     56.25% # Class of executed instruction
system.cpu.op_class::FloatCvt                       0      0.00%     56.25% # Class of executed instruction
system.cpu.op_class::FloatMult                      0      0.00%     56.25% # Class of executed instruction
system.cpu.op_class::FloatMultAcc                   0      0.00%     56.25% # Class of executed instruction
system.cpu.op_class::FloatDiv                       0      0.00%     56.25% # Class of executed instruction
system.cpu.op_class::FloatMisc                      0      0.00%     56.25% # Class of executed instruction
system.cpu.op_class::FloatSqrt                      0      0.00%     56.25% # Class of executed instruction
system.cpu.op_class::SimdAdd                        0      0.00%     56.25% # Class of executed instruction
system.cpu.op_class::SimdAddAcc                     0      0.00%     56.25% # Class of executed instruction
system.cpu.op_class::SimdAlu                        0      0.00%     56.25% # Class of executed instruction
system.cpu.op_class::SimdCmp                        0      0.00%     56.25% # Class of executed instruction
system.cpu.op_class::SimdCvt                        0      0.00%     56.25% # Class of executed instruction
system.cpu.op_class::SimdMisc                       0      0.00%     56.25% # Class of executed instruction
system.cpu.op_class::SimdMult                       0      0.00%     56.25% # Class of executed instruction
system.cpu.op_class::SimdMultAcc                    0      0.00%     56.25% # Class of executed instruction
system.cpu.op_class::SimdShift                      0      0.00%     56.25% # Class of executed instruction
system.cpu.op_class::SimdShiftAcc                   0      0.00%     56.25% # Class of executed instruction
system.cpu.op_class::SimdDiv                        0      0.00%     56.25% # Class of executed instruction
system.cpu.op_class::SimdSqrt                       0      0.00%     56.25% # Class of executed instruction
system.cpu.op_class::SimdFloatAdd                   0      0.00%     56.25% # Class of executed instruction
system.cpu.op_class::SimdFloatAlu                   0      0.00%     56.25% # Class of executed instruction
system.cpu.op_class::SimdFloatCmp                   0      0.00%     56.25% # Class of executed instruction
system.cpu.op_class::SimdFloatCvt                   0      0.00%     56.25% # Class of executed instruction
system.cpu.op_class::SimdFloatDiv                   0      0.00%     56.25% # Class of executed instruction
system.cpu.op_class::SimdFloatMisc                  0      0.00%     56.25% # Class of executed instruction
system.cpu.op_class::SimdFloatMult                  0      0.00%     56.25% # Class of executed instruction
system.cpu.op_class::SimdFloatMultAcc               0      0.00%     56.25% # Class of executed instruction
system.cpu.op_class::SimdFloatSqrt                  0      0.00%     56.25% # Class of executed instruction
system.cpu.op_class::SimdReduceAdd                  0      0.00%     56.25% # Class of executed instruction
system.cpu.op_class::SimdReduceAlu                  0      0.00%     56.25% # Class of executed instruction
system.cpu.op_class::SimdReduceCmp                  0      0.00%     56.25% # Class of executed instruction
system.cpu.op_class::SimdFloatReduceAdd             0      0.00%     56.25% # Class of executed instruction
system.cpu.op_class::SimdFloatReduceCmp             0      0.00%     56.25% # Class of executed instruction
system.cpu.op_class::SimdAes                        0      0.00%     56.25% # Class of executed instruction
system.cpu.op_class::SimdAesMix                     0      0.00%     56.25% # Class of executed instruction
system.cpu.op_class::SimdSha1Hash                   0      0.00%     56.25% # Class of executed instruction
system.cpu.op_class::SimdSha1Hash2                  0      0.00%     56.25% # Class of executed instruction
system.cpu.op_class::SimdSha256Hash                 0      0.00%     56.25% # Class of executed instruction
system.cpu.op_class::SimdSha256Hash2                0      0.00%     56.25% # Class of executed instruction
system.cpu.op_class::SimdShaSigma2                  0      0.00%     56.25% # Class of executed instruction
system.cpu.op_class::SimdShaSigma3                  0      0.00%     56.25% # Class of executed instruction
system.cpu.op_class::SimdPredAlu                    0      0.00%     56.25% # Class of executed instruction
system.cpu.op_class::MemRead                        5     31.25%     87.50% # Class of executed instruction
system.cpu.op_class::MemWrite                       2     12.50%    100.00% # Class of executed instruction
system.cpu.op_class::FloatMemRead                   0      0.00%    100.00% # Class of executed instruction
system.cpu.op_class::FloatMemWrite                  0      0.00%    100.00% # Class of executed instruction
system.cpu.op_class::IprAccess                      0      0.00%    100.00% # Class of executed instruction
system.cpu.op_class::InstPrefetch                   0      0.00%    100.00% # Class of executed instruction
system.cpu.op_class::total                         16                       # Class of executed instruction
system.cpu.workload.numSyscalls                     0                       # Number of system calls
system.membus.snoop_filter.hit_multi_requests            0                       # Number of requests hitting in the snoop filter with multiple (>1) holders of the requested data.
system.membus.snoop_filter.hit_multi_snoops            0                       # Number of snoops hitting in the snoop filter with multiple (>1) holders of the requested data.
system.membus.snoop_filter.hit_single_requests           76                       # Number of requests hitting in the snoop filter with a single holder of the requested data.
system.membus.snoop_filter.hit_single_snoops            0                       # Number of snoops hitting in the snoop filter with a single holder of the requested data.
system.membus.snoop_filter.tot_requests          2832                       # Total number of requests made to the snoop filter.
system.membus.snoop_filter.tot_snoops               0                       # Total number of snoops made to the snoop filter.
system.switch_cpus.branchPred.BTBCorrect            0                       # Number of correct BTB predictions (this stat may not work properly.
system.switch_cpus.branchPred.BTBHitPct      0.000000                       # BTB Hit Percentage
system.switch_cpus.branchPred.BTBHits               0                       # Number of BTB hits
system.switch_cpus.branchPred.BTBLookups       640840                       # Number of BTB lookups
system.switch_cpus.branchPred.RASInCorrect            1                       # Number of incorrect RAS predictions.
system.switch_cpus.branchPred.condIncorrect        20956                       # Number of conditional branches incorrect
system.switch_cpus.branchPred.condPredicted       862483                       # Number of conditional branches predicted
system.switch_cpus.branchPred.indirectHits       499623                       # Number of indirect target hits.
system.switch_cpus.branchPred.indirectLookups       640840                       # Number of indirect predictor lookups.
system.switch_cpus.branchPred.indirectMisses       141217                       # Number of indirect misses.
system.switch_cpus.branchPred.lookups          946710                       # Number of BP lookups
system.switch_cpus.branchPred.usedRAS           41135                       # Number of times the RAS was used to get a target.
system.switch_cpus.branchPredindirectMispredicted         3057                       # Number of mispredicted indirect branches.
system.switch_cpus.cc_regfile_reads          14092638                       # number of cc regfile reads
system.switch_cpus.cc_regfile_writes          7121254                       # number of cc regfile writes
system.switch_cpus.commit.amos                      0                       # Number of atomic instructions committed
system.switch_cpus.commit.branchMispredicts        20983                       # The number of times a branch was mispredicted
system.switch_cpus.commit.branches             716889                       # Number of branches committed
system.switch_cpus.commit.bw_lim_events       1271906                       # number cycles where commit BW limit reached
system.switch_cpus.commit.commitSquashedInsts      1262953                       # The number of squashed insts skipped by commit
system.switch_cpus.commit.committedInsts     10000000                       # Number of instructions committed
system.switch_cpus.commit.committedOps       16039466                       # Number of ops (including micro ops) committed
system.switch_cpus.commit.committed_per_cycle::samples      5064982                       # Number of insts commited each cycle
system.switch_cpus.commit.committed_per_cycle::mean     3.166737                       # Number of insts commited each cycle
system.switch_cpus.commit.committed_per_cycle::stdev     3.127667                       # Number of insts commited each cycle
system.switch_cpus.commit.committed_per_cycle::underflows            0      0.00%      0.00% # Number of insts commited each cycle
system.switch_cpus.commit.committed_per_cycle::0       795288     15.70%     15.70% # Number of insts commited each cycle
system.switch_cpus.commit.committed_per_cycle::1      1886142     37.24%     52.94% # Number of insts commited each cycle
system.switch_cpus.commit.committed_per_cycle::2       421867      8.33%     61.27% # Number of insts commited each cycle
system.switch_cpus.commit.committed_per_cycle::3       195261      3.86%     65.12% # Number of insts commited each cycle
system.switch_cpus.commit.committed_per_cycle::4       157804      3.12%     68.24% # Number of insts commited each cycle
system.switch_cpus.commit.committed_per_cycle::5       149330      2.95%     71.19% # Number of insts commited each cycle
system.switch_cpus.commit.committed_per_cycle::6       140995      2.78%     73.97% # Number of insts commited each cycle
system.switch_cpus.commit.committed_per_cycle::7        46389      0.92%     74.89% # Number of insts commited each cycle
system.switch_cpus.commit.committed_per_cycle::8      1271906     25.11%    100.00% # Number of insts commited each cycle
system.switch_cpus.commit.committed_per_cycle::overflows            0      0.00%    100.00% # Number of insts commited each cycle
system.switch_cpus.commit.committed_per_cycle::min_value            0                       # Number of insts commited each cycle
system.switch_cpus.commit.committed_per_cycle::max_value            8                       # Number of insts commited each cycle
system.switch_cpus.commit.committed_per_cycle::total      5064982                       # Number of insts commited each cycle
system.switch_cpus.commit.fp_insts            1422468                       # Number of committed floating point instructions.
system.switch_cpus.commit.function_calls        32268                       # Number of function calls committed.
system.switch_cpus.commit.int_insts          14820827                       # Number of committed integer instructions.
system.switch_cpus.commit.loads               3605608                       # Number of loads committed
system.switch_cpus.commit.membars                   0                       # Number of memory barriers committed
system.switch_cpus.commit.op_class_0::No_OpClass        95096      0.59%      0.59% # Class of committed instruction
system.switch_cpus.commit.op_class_0::IntAlu      9834473     61.31%     61.91% # Class of committed instruction
system.switch_cpus.commit.op_class_0::IntMult        85136      0.53%     62.44% # Class of committed instruction
system.switch_cpus.commit.op_class_0::IntDiv            0      0.00%     62.44% # Class of committed instruction
system.switch_cpus.commit.op_class_0::FloatAdd        32304      0.20%     62.64% # Class of committed instruction
system.switch_cpus.commit.op_class_0::FloatCmp            0      0.00%     62.64% # Class of committed instruction
system.switch_cpus.commit.op_class_0::FloatCvt            0      0.00%     62.64% # Class of committed instruction
system.switch_cpus.commit.op_class_0::FloatMult            0      0.00%     62.64% # Class of committed instruction
system.switch_cpus.commit.op_class_0::FloatMultAcc            0      0.00%     62.64% # Class of committed instruction
system.switch_cpus.commit.op_class_0::FloatDiv            0      0.00%     62.64% # Class of committed instruction
system.switch_cpus.commit.op_class_0::FloatMisc            0      0.00%     62.64% # Class of committed instruction
system.switch_cpus.commit.op_class_0::FloatSqrt            0      0.00%     62.64% # Class of committed instruction
system.switch_cpus.commit.op_class_0::SimdAdd        21092      0.13%     62.77% # Class of committed instruction
system.switch_cpus.commit.op_class_0::SimdAddAcc            0      0.00%     62.77% # Class of committed instruction
system.switch_cpus.commit.op_class_0::SimdAlu       328288      2.05%     64.82% # Class of committed instruction
system.switch_cpus.commit.op_class_0::SimdCmp            0      0.00%     64.82% # Class of committed instruction
system.switch_cpus.commit.op_class_0::SimdCvt       126484      0.79%     65.61% # Class of committed instruction
system.switch_cpus.commit.op_class_0::SimdMisc       158973      0.99%     66.60% # Class of committed instruction
system.switch_cpus.commit.op_class_0::SimdMult            0      0.00%     66.60% # Class of committed instruction
system.switch_cpus.commit.op_class_0::SimdMultAcc            0      0.00%     66.60% # Class of committed instruction
system.switch_cpus.commit.op_class_0::SimdShift        63276      0.39%     66.99% # Class of committed instruction
system.switch_cpus.commit.op_class_0::SimdShiftAcc            0      0.00%     66.99% # Class of committed instruction
system.switch_cpus.commit.op_class_0::SimdDiv            0      0.00%     66.99% # Class of committed instruction
system.switch_cpus.commit.op_class_0::SimdSqrt            0      0.00%     66.99% # Class of committed instruction
system.switch_cpus.commit.op_class_0::SimdFloatAdd       107593      0.67%     67.66% # Class of committed instruction
system.switch_cpus.commit.op_class_0::SimdFloatAlu            0      0.00%     67.66% # Class of committed instruction
system.switch_cpus.commit.op_class_0::SimdFloatCmp           32      0.00%     67.66% # Class of committed instruction
system.switch_cpus.commit.op_class_0::SimdFloatCvt       150578      0.94%     68.60% # Class of committed instruction
system.switch_cpus.commit.op_class_0::SimdFloatDiv        21316      0.13%     68.73% # Class of committed instruction
system.switch_cpus.commit.op_class_0::SimdFloatMisc            0      0.00%     68.73% # Class of committed instruction
system.switch_cpus.commit.op_class_0::SimdFloatMult        11022      0.07%     68.80% # Class of committed instruction
system.switch_cpus.commit.op_class_0::SimdFloatMultAcc            0      0.00%     68.80% # Class of committed instruction
system.switch_cpus.commit.op_class_0::SimdFloatSqrt            0      0.00%     68.80% # Class of committed instruction
system.switch_cpus.commit.op_class_0::SimdReduceAdd            0      0.00%     68.80% # Class of committed instruction
system.switch_cpus.commit.op_class_0::SimdReduceAlu            0      0.00%     68.80% # Class of committed instruction
system.switch_cpus.commit.op_class_0::SimdReduceCmp            0      0.00%     68.80% # Class of committed instruction
system.switch_cpus.commit.op_class_0::SimdFloatReduceAdd            0      0.00%     68.80% # Class of committed instruction
system.switch_cpus.commit.op_class_0::SimdFloatReduceCmp            0      0.00%     68.80% # Class of committed instruction
system.switch_cpus.commit.op_class_0::SimdAes            0      0.00%     68.80% # Class of committed instruction
system.switch_cpus.commit.op_class_0::SimdAesMix            0      0.00%     68.80% # Class of committed instruction
system.switch_cpus.commit.op_class_0::SimdSha1Hash            0      0.00%     68.80% # Class of committed instruction
system.switch_cpus.commit.op_class_0::SimdSha1Hash2            0      0.00%     68.80% # Class of committed instruction
system.switch_cpus.commit.op_class_0::SimdSha256Hash            0      0.00%     68.80% # Class of committed instruction
system.switch_cpus.commit.op_class_0::SimdSha256Hash2            0      0.00%     68.80% # Class of committed instruction
system.switch_cpus.commit.op_class_0::SimdShaSigma2            0      0.00%     68.80% # Class of committed instruction
system.switch_cpus.commit.op_class_0::SimdShaSigma3            0      0.00%     68.80% # Class of committed instruction
system.switch_cpus.commit.op_class_0::SimdPredAlu            0      0.00%     68.80% # Class of committed instruction
system.switch_cpus.commit.op_class_0::MemRead      3381319     21.08%     89.88% # Class of committed instruction
system.switch_cpus.commit.op_class_0::MemWrite      1397848      8.72%     98.60% # Class of committed instruction
system.switch_cpus.commit.op_class_0::FloatMemRead       224289      1.40%    100.00% # Class of committed instruction
system.switch_cpus.commit.op_class_0::FloatMemWrite          347      0.00%    100.00% # Class of committed instruction
system.switch_cpus.commit.op_class_0::IprAccess            0      0.00%    100.00% # Class of committed instruction
system.switch_cpus.commit.op_class_0::InstPrefetch            0      0.00%    100.00% # Class of committed instruction
system.switch_cpus.commit.op_class_0::total     16039466                       # Class of committed instruction
system.switch_cpus.commit.refs                5003803                       # Number of memory references committed
system.switch_cpus.commit.swp_count                 0                       # Number of s/w prefetches committed
system.switch_cpus.commit.vec_insts                 0                       # Number of committed Vector instructions.
system.switch_cpus.committedInsts            10000000                       # Number of Instructions Simulated
system.switch_cpus.committedOps              16039466                       # Number of Ops (including micro ops) Simulated
system.switch_cpus.cpi                       0.524411                       # CPI: Cycles Per Instruction
system.switch_cpus.cpi_total                 0.524411                       # CPI: Total CPI of All Threads
system.switch_cpus.decode.BlockedCycles       2321327                       # Number of cycles decode is blocked
system.switch_cpus.decode.DecodedInsts       17658797                       # Number of instructions handled by decode
system.switch_cpus.decode.IdleCycles           561074                       # Number of cycles decode is idle
system.switch_cpus.decode.RunCycles           1569950                       # Number of cycles decode is running
system.switch_cpus.decode.SquashCycles          21206                       # Number of cycles decode is squashing
system.switch_cpus.decode.UnblockCycles        760897                       # Number of cycles decode is unblocking
system.switch_cpus.dtb.rdAccesses             3696860                       # TLB accesses on read requests
system.switch_cpus.dtb.rdMisses                    61                       # TLB misses on read requests
system.switch_cpus.dtb.wrAccesses             1412573                       # TLB accesses on write requests
system.switch_cpus.dtb.wrMisses                    76                       # TLB misses on write requests
system.switch_cpus.fetch.Branches              946710                       # Number of branches that fetch encountered
system.switch_cpus.fetch.CacheLines            858040                       # Number of cache lines fetched
system.switch_cpus.fetch.Cycles               4340733                       # Number of cycles fetch has run and was not squashing or blocked
system.switch_cpus.fetch.IcacheSquashes          4086                       # Number of outstanding Icache misses that were squashed
system.switch_cpus.fetch.Insts               10975612                       # Number of instructions fetch has processed
system.switch_cpus.fetch.MiscStallCycles           27                       # Number of cycles fetch has spent waiting on interrupts, or bad addresses, or out of MSHRs
system.switch_cpus.fetch.PendingTrapStallCycles          164                       # Number of stall cycles due to pending traps
system.switch_cpus.fetch.SquashCycles           42412                       # Number of cycles fetch has spent squashing
system.switch_cpus.fetch.branchRate          0.180528                       # Number of branch fetches per cycle
system.switch_cpus.fetch.icacheStallCycles       872332                       # Number of cycles fetch is stalled on an Icache miss
system.switch_cpus.fetch.predictedBranches       540758                       # Number of branches that fetch has predicted taken
system.switch_cpus.fetch.rate                2.092943                       # Number of inst fetches per cycle
system.switch_cpus.fetch.rateDist::samples      5234462                       # Number of instructions fetched each cycle (Total)
system.switch_cpus.fetch.rateDist::mean      3.420236                       # Number of instructions fetched each cycle (Total)
system.switch_cpus.fetch.rateDist::stdev     3.556356                       # Number of instructions fetched each cycle (Total)
system.switch_cpus.fetch.rateDist::underflows            0      0.00%      0.00% # Number of instructions fetched each cycle (Total)
system.switch_cpus.fetch.rateDist::0          2421529     46.26%     46.26% # Number of instructions fetched each cycle (Total)
system.switch_cpus.fetch.rateDist::1           136650      2.61%     48.87% # Number of instructions fetched each cycle (Total)
system.switch_cpus.fetch.rateDist::2           106020      2.03%     50.90% # Number of instructions fetched each cycle (Total)
system.switch_cpus.fetch.rateDist::3           148027      2.83%     53.73% # Number of instructions fetched each cycle (Total)
system.switch_cpus.fetch.rateDist::4           181728      3.47%     57.20% # Number of instructions fetched each cycle (Total)
system.switch_cpus.fetch.rateDist::5           335748      6.41%     63.61% # Number of instructions fetched each cycle (Total)
system.switch_cpus.fetch.rateDist::6           169338      3.24%     66.85% # Number of instructions fetched each cycle (Total)
system.switch_cpus.fetch.rateDist::7           194730      3.72%     70.57% # Number of instructions fetched each cycle (Total)
system.switch_cpus.fetch.rateDist::8          1540692     29.43%    100.00% # Number of instructions fetched each cycle (Total)
system.switch_cpus.fetch.rateDist::overflows            0      0.00%    100.00% # Number of instructions fetched each cycle (Total)
system.switch_cpus.fetch.rateDist::min_value            0                       # Number of instructions fetched each cycle (Total)
system.switch_cpus.fetch.rateDist::max_value            8                       # Number of instructions fetched each cycle (Total)
system.switch_cpus.fetch.rateDist::total      5234462                       # Number of instructions fetched each cycle (Total)
system.switch_cpus.fp_regfile_reads           2747303                       # number of floating regfile reads
system.switch_cpus.fp_regfile_writes          1369463                       # number of floating regfile writes
system.switch_cpus.idleCycles                    9643                       # Total number of cycles that the CPU has spent unscheduled due to idling
system.switch_cpus.iew.branchMispredicts        34527                       # Number of branch mispredicts detected at execute
system.switch_cpus.iew.exec_branches           782011                       # Number of branches executed
system.switch_cpus.iew.exec_nop                     0                       # number of nop insts executed
system.switch_cpus.iew.exec_rate             3.201449                       # Inst execution rate
system.switch_cpus.iew.exec_refs              5103866                       # number of memory reference insts executed
system.switch_cpus.iew.exec_stores            1412573                       # Number of stores executed
system.switch_cpus.iew.exec_swp                     0                       # number of swp insts executed
system.switch_cpus.iew.iewBlockCycles          149392                       # Number of cycles IEW is blocking
system.switch_cpus.iew.iewDispLoadInsts       3724847                       # Number of dispatched load instructions
system.switch_cpus.iew.iewDispNonSpecInsts            1                       # Number of dispatched non-speculative instructions
system.switch_cpus.iew.iewDispSquashedInsts          761                       # Number of squashed instructions skipped by dispatch
system.switch_cpus.iew.iewDispStoreInsts      1430389                       # Number of dispatched store instructions
system.switch_cpus.iew.iewDispatchedInsts     17302459                       # Number of instructions dispatched to IQ
system.switch_cpus.iew.iewExecLoadInsts       3691293                       # Number of load instructions executed
system.switch_cpus.iew.iewExecSquashedInsts        35935                       # Number of squashed instructions skipped in execute
system.switch_cpus.iew.iewExecutedInsts      16788737                       # Number of executed instructions
system.switch_cpus.iew.iewIQFullEvents             94                       # Number of times the IQ has become full, causing a stall
system.switch_cpus.iew.iewIdleCycles                0                       # Number of cycles IEW is idle
system.switch_cpus.iew.iewLSQFullEvents         19382                       # Number of times the LSQ has become full, causing a stall
system.switch_cpus.iew.iewSquashCycles          21206                       # Number of cycles IEW is squashing
system.switch_cpus.iew.iewUnblockCycles         19489                       # Number of cycles IEW is unblocking
system.switch_cpus.iew.lsq.thread0.blockedLoads            0                       # Number of blocked loads due to partial load-store forwarding
system.switch_cpus.iew.lsq.thread0.cacheBlocked          137                       # Number of times an access to memory failed due to the cache being blocked
system.switch_cpus.iew.lsq.thread0.forwLoads       382430                       # Number of loads that had data forwarded from stores
system.switch_cpus.iew.lsq.thread0.ignoredResponses           49                       # Number of memory responses ignored because the instruction is squashed
system.switch_cpus.iew.lsq.thread0.invAddrLoads            0                       # Number of loads ignored due to an invalid address
system.switch_cpus.iew.lsq.thread0.invAddrSwpfs            0                       # Number of software prefetches ignored due to an invalid address
system.switch_cpus.iew.lsq.thread0.memOrderViolation          263                       # Number of memory ordering violations
system.switch_cpus.iew.lsq.thread0.rescheduledLoads            0                       # Number of loads that were rescheduled
system.switch_cpus.iew.lsq.thread0.squashedLoads       119222                       # Number of loads squashed
system.switch_cpus.iew.lsq.thread0.squashedStores        32189                       # Number of stores squashed
system.switch_cpus.iew.memOrderViolationEvents          263                       # Number of memory order violations
system.switch_cpus.iew.predictedNotTakenIncorrect        28910                       # Number of branches that were predicted not taken incorrectly
system.switch_cpus.iew.predictedTakenIncorrect         5617                       # Number of branches that were predicted taken incorrectly
system.switch_cpus.iew.wb_consumers          26966920                       # num instructions consuming a value
system.switch_cpus.iew.wb_count              16770764                       # cumulative count of insts written-back
system.switch_cpus.iew.wb_fanout             0.498507                       # average fanout of values written-back
system.switch_cpus.iew.wb_producers          13443185                       # num instructions producing a value
system.switch_cpus.iew.wb_rate               3.198022                       # insts written-back per cycle
system.switch_cpus.iew.wb_sent               16777976                       # cumulative count of insts sent to commit
system.switch_cpus.int_regfile_reads         29056323                       # number of integer regfile reads
system.switch_cpus.int_regfile_writes        13105405                       # number of integer regfile writes
system.switch_cpus.ipc                       1.906903                       # IPC: Instructions Per Cycle
system.switch_cpus.ipc_total                 1.906903                       # IPC: Total IPC of All Threads
system.switch_cpus.iq.FU_type_0::No_OpClass       100316      0.60%      0.60% # Type of FU issued
system.switch_cpus.iq.FU_type_0::IntAlu      10417562     61.92%     62.51% # Type of FU issued
system.switch_cpus.iq.FU_type_0::IntMult        86890      0.52%     63.03% # Type of FU issued
system.switch_cpus.iq.FU_type_0::IntDiv             0      0.00%     63.03% # Type of FU issued
system.switch_cpus.iq.FU_type_0::FloatAdd        35078      0.21%     63.24% # Type of FU issued
system.switch_cpus.iq.FU_type_0::FloatCmp            0      0.00%     63.24% # Type of FU issued
system.switch_cpus.iq.FU_type_0::FloatCvt            0      0.00%     63.24% # Type of FU issued
system.switch_cpus.iq.FU_type_0::FloatMult            0      0.00%     63.24% # Type of FU issued
system.switch_cpus.iq.FU_type_0::FloatMultAcc            0      0.00%     63.24% # Type of FU issued
system.switch_cpus.iq.FU_type_0::FloatDiv            0      0.00%     63.24% # Type of FU issued
system.switch_cpus.iq.FU_type_0::FloatMisc            0      0.00%     63.24% # Type of FU issued
system.switch_cpus.iq.FU_type_0::FloatSqrt            0      0.00%     63.24% # Type of FU issued
system.switch_cpus.iq.FU_type_0::SimdAdd        21092      0.13%     63.36% # Type of FU issued
system.switch_cpus.iq.FU_type_0::SimdAddAcc            0      0.00%     63.36% # Type of FU issued
system.switch_cpus.iq.FU_type_0::SimdAlu       343091      2.04%     65.40% # Type of FU issued
system.switch_cpus.iq.FU_type_0::SimdCmp            0      0.00%     65.40% # Type of FU issued
system.switch_cpus.iq.FU_type_0::SimdCvt       129492      0.77%     66.17% # Type of FU issued
system.switch_cpus.iq.FU_type_0::SimdMisc       161165      0.96%     67.13% # Type of FU issued
system.switch_cpus.iq.FU_type_0::SimdMult            0      0.00%     67.13% # Type of FU issued
system.switch_cpus.iq.FU_type_0::SimdMultAcc            0      0.00%     67.13% # Type of FU issued
system.switch_cpus.iq.FU_type_0::SimdShift        63356      0.38%     67.51% # Type of FU issued
system.switch_cpus.iq.FU_type_0::SimdShiftAcc            0      0.00%     67.51% # Type of FU issued
system.switch_cpus.iq.FU_type_0::SimdDiv            0      0.00%     67.51% # Type of FU issued
system.switch_cpus.iq.FU_type_0::SimdSqrt            0      0.00%     67.51% # Type of FU issued
system.switch_cpus.iq.FU_type_0::SimdFloatAdd       138963      0.83%     68.33% # Type of FU issued
system.switch_cpus.iq.FU_type_0::SimdFloatAlu            0      0.00%     68.33% # Type of FU issued
system.switch_cpus.iq.FU_type_0::SimdFloatCmp           48      0.00%     68.33% # Type of FU issued
system.switch_cpus.iq.FU_type_0::SimdFloatCvt       176413      1.05%     69.38% # Type of FU issued
system.switch_cpus.iq.FU_type_0::SimdFloatDiv        23360      0.14%     69.52% # Type of FU issued
system.switch_cpus.iq.FU_type_0::SimdFloatMisc            0      0.00%     69.52% # Type of FU issued
system.switch_cpus.iq.FU_type_0::SimdFloatMult        13132      0.08%     69.60% # Type of FU issued
system.switch_cpus.iq.FU_type_0::SimdFloatMultAcc            0      0.00%     69.60% # Type of FU issued
system.switch_cpus.iq.FU_type_0::SimdFloatSqrt            0      0.00%     69.60% # Type of FU issued
system.switch_cpus.iq.FU_type_0::SimdReduceAdd            0      0.00%     69.60% # Type of FU issued
system.switch_cpus.iq.FU_type_0::SimdReduceAlu            0      0.00%     69.60% # Type of FU issued
system.switch_cpus.iq.FU_type_0::SimdReduceCmp            0      0.00%     69.60% # Type of FU issued
system.switch_cpus.iq.FU_type_0::SimdFloatReduceAdd            0      0.00%     69.60% # Type of FU issued
system.switch_cpus.iq.FU_type_0::SimdFloatReduceCmp            0      0.00%     69.60% # Type of FU issued
system.switch_cpus.iq.FU_type_0::SimdAes            0      0.00%     69.60% # Type of FU issued
system.switch_cpus.iq.FU_type_0::SimdAesMix            0      0.00%     69.60% # Type of FU issued
system.switch_cpus.iq.FU_type_0::SimdSha1Hash            0      0.00%     69.60% # Type of FU issued
system.switch_cpus.iq.FU_type_0::SimdSha1Hash2            0      0.00%     69.60% # Type of FU issued
system.switch_cpus.iq.FU_type_0::SimdSha256Hash            0      0.00%     69.60% # Type of FU issued
system.switch_cpus.iq.FU_type_0::SimdSha256Hash2            0      0.00%     69.60% # Type of FU issued
system.switch_cpus.iq.FU_type_0::SimdShaSigma2            0      0.00%     69.60% # Type of FU issued
system.switch_cpus.iq.FU_type_0::SimdShaSigma3            0      0.00%     69.60% # Type of FU issued
system.switch_cpus.iq.FU_type_0::SimdPredAlu            0      0.00%     69.60% # Type of FU issued
system.switch_cpus.iq.FU_type_0::MemRead      3419894     20.33%     89.93% # Type of FU issued
system.switch_cpus.iq.FU_type_0::MemWrite      1414337      8.41%     98.33% # Type of FU issued
system.switch_cpus.iq.FU_type_0::FloatMemRead       279987      1.66%    100.00% # Type of FU issued
system.switch_cpus.iq.FU_type_0::FloatMemWrite          503      0.00%    100.00% # Type of FU issued
system.switch_cpus.iq.FU_type_0::IprAccess            0      0.00%    100.00% # Type of FU issued
system.switch_cpus.iq.FU_type_0::InstPrefetch            0      0.00%    100.00% # Type of FU issued
system.switch_cpus.iq.FU_type_0::total       16824679                       # Type of FU issued
system.switch_cpus.iq.fp_alu_accesses         1587674                       # Number of floating point alu accesses
system.switch_cpus.iq.fp_inst_queue_reads      3152925                       # Number of floating instruction queue reads
system.switch_cpus.iq.fp_inst_queue_wakeup_accesses      1547604                       # Number of floating instruction queue wakeup accesses
system.switch_cpus.iq.fp_inst_queue_writes      1902120                       # Number of floating instruction queue writes
system.switch_cpus.iq.fu_busy_cnt              197635                       # FU busy when requested
system.switch_cpus.iq.fu_busy_rate           0.011747                       # FU busy rate (busy events/executed inst)
system.switch_cpus.iq.fu_full::No_OpClass            0      0.00%      0.00% # attempts to use FU when none available
system.switch_cpus.iq.fu_full::IntAlu          117436     59.42%     59.42% # attempts to use FU when none available
system.switch_cpus.iq.fu_full::IntMult              0      0.00%     59.42% # attempts to use FU when none available
system.switch_cpus.iq.fu_full::IntDiv               0      0.00%     59.42% # attempts to use FU when none available
system.switch_cpus.iq.fu_full::FloatAdd             0      0.00%     59.42% # attempts to use FU when none available
system.switch_cpus.iq.fu_full::FloatCmp             0      0.00%     59.42% # attempts to use FU when none available
system.switch_cpus.iq.fu_full::FloatCvt             0      0.00%     59.42% # attempts to use FU when none available
system.switch_cpus.iq.fu_full::FloatMult            0      0.00%     59.42% # attempts to use FU when none available
system.switch_cpus.iq.fu_full::FloatMultAcc            0      0.00%     59.42% # attempts to use FU when none available
system.switch_cpus.iq.fu_full::FloatDiv             0      0.00%     59.42% # attempts to use FU when none available
system.switch_cpus.iq.fu_full::FloatMisc            0      0.00%     59.42% # attempts to use FU when none available
system.switch_cpus.iq.fu_full::FloatSqrt            0      0.00%     59.42% # attempts to use FU when none available
system.switch_cpus.iq.fu_full::SimdAdd              0      0.00%     59.42% # attempts to use FU when none available
system.switch_cpus.iq.fu_full::SimdAddAcc            0      0.00%     59.42% # attempts to use FU when none available
system.switch_cpus.iq.fu_full::SimdAlu            130      0.07%     59.49% # attempts to use FU when none available
system.switch_cpus.iq.fu_full::SimdCmp              0      0.00%     59.49% # attempts to use FU when none available
system.switch_cpus.iq.fu_full::SimdCvt           3330      1.68%     61.17% # attempts to use FU when none available
system.switch_cpus.iq.fu_full::SimdMisc            23      0.01%     61.18% # attempts to use FU when none available
system.switch_cpus.iq.fu_full::SimdMult             0      0.00%     61.18% # attempts to use FU when none available
system.switch_cpus.iq.fu_full::SimdMultAcc            0      0.00%     61.18% # attempts to use FU when none available
system.switch_cpus.iq.fu_full::SimdShift            0      0.00%     61.18% # attempts to use FU when none available
system.switch_cpus.iq.fu_full::SimdShiftAcc            0      0.00%     61.18% # attempts to use FU when none available
system.switch_cpus.iq.fu_full::SimdDiv              0      0.00%     61.18% # attempts to use FU when none available
system.switch_cpus.iq.fu_full::SimdSqrt             0      0.00%     61.18% # attempts to use FU when none available
system.switch_cpus.iq.fu_full::SimdFloatAdd         2281      1.15%     62.34% # attempts to use FU when none available
system.switch_cpus.iq.fu_full::SimdFloatAlu            0      0.00%     62.34% # attempts to use FU when none available
system.switch_cpus.iq.fu_full::SimdFloatCmp            0      0.00%     62.34% # attempts to use FU when none available
system.switch_cpus.iq.fu_full::SimdFloatCvt         9853      4.99%     67.32% # attempts to use FU when none available
system.switch_cpus.iq.fu_full::SimdFloatDiv            0      0.00%     67.32% # attempts to use FU when none available
system.switch_cpus.iq.fu_full::SimdFloatMisc            0      0.00%     67.32% # attempts to use FU when none available
system.switch_cpus.iq.fu_full::SimdFloatMult            0      0.00%     67.32% # attempts to use FU when none available
system.switch_cpus.iq.fu_full::SimdFloatMultAcc            0      0.00%     67.32% # attempts to use FU when none available
system.switch_cpus.iq.fu_full::SimdFloatSqrt            0      0.00%     67.32% # attempts to use FU when none available
system.switch_cpus.iq.fu_full::SimdReduceAdd            0      0.00%     67.32% # attempts to use FU when none available
system.switch_cpus.iq.fu_full::SimdReduceAlu            0      0.00%     67.32% # attempts to use FU when none available
system.switch_cpus.iq.fu_full::SimdReduceCmp            0      0.00%     67.32% # attempts to use FU when none available
system.switch_cpus.iq.fu_full::SimdFloatReduceAdd            0      0.00%     67.32% # attempts to use FU when none available
system.switch_cpus.iq.fu_full::SimdFloatReduceCmp            0      0.00%     67.32% # attempts to use FU when none available
system.switch_cpus.iq.fu_full::SimdAes              0      0.00%     67.32% # attempts to use FU when none available
system.switch_cpus.iq.fu_full::SimdAesMix            0      0.00%     67.32% # attempts to use FU when none available
system.switch_cpus.iq.fu_full::SimdSha1Hash            0      0.00%     67.32% # attempts to use FU when none available
system.switch_cpus.iq.fu_full::SimdSha1Hash2            0      0.00%     67.32% # attempts to use FU when none available
system.switch_cpus.iq.fu_full::SimdSha256Hash            0      0.00%     67.32% # attempts to use FU when none available
system.switch_cpus.iq.fu_full::SimdSha256Hash2            0      0.00%     67.32% # attempts to use FU when none available
system.switch_cpus.iq.fu_full::SimdShaSigma2            0      0.00%     67.32% # attempts to use FU when none available
system.switch_cpus.iq.fu_full::SimdShaSigma3            0      0.00%     67.32% # attempts to use FU when none available
system.switch_cpus.iq.fu_full::SimdPredAlu            0      0.00%     67.32% # attempts to use FU when none available
system.switch_cpus.iq.fu_full::MemRead          56613     28.65%     95.97% # attempts to use FU when none available
system.switch_cpus.iq.fu_full::MemWrite           540      0.27%     96.24% # attempts to use FU when none available
system.switch_cpus.iq.fu_full::FloatMemRead         7429      3.76%    100.00% # attempts to use FU when none available
system.switch_cpus.iq.fu_full::FloatMemWrite            0      0.00%    100.00% # attempts to use FU when none available
system.switch_cpus.iq.fu_full::IprAccess            0      0.00%    100.00% # attempts to use FU when none available
system.switch_cpus.iq.fu_full::InstPrefetch            0      0.00%    100.00% # attempts to use FU when none available
system.switch_cpus.iq.int_alu_accesses       15334324                       # Number of integer alu accesses
system.switch_cpus.iq.int_inst_queue_reads     36003797                       # Number of integer instruction queue reads
system.switch_cpus.iq.int_inst_queue_wakeup_accesses     15223160                       # Number of integer instruction queue wakeup accesses
system.switch_cpus.iq.int_inst_queue_writes     16663514                       # Number of integer instruction queue writes
system.switch_cpus.iq.iqInstsAdded           17302449                       # Number of instructions added to the IQ (excludes non-spec)
system.switch_cpus.iq.iqInstsIssued          16824679                       # Number of instructions issued
system.switch_cpus.iq.iqNonSpecInstsAdded           10                       # Number of non-speculative instructions added to the IQ
system.switch_cpus.iq.iqSquashedInstsExamined      1262914                       # Number of squashed instructions iterated over during squash; mainly for profiling
system.switch_cpus.iq.iqSquashedInstsIssued        75274                       # Number of squashed instructions issued
system.switch_cpus.iq.iqSquashedNonSpecRemoved           10                       # Number of squashed non-spec instructions that were removed
system.switch_cpus.iq.iqSquashedOperandsExamined      1782481                       # Number of squashed operands that are examined and possibly removed from graph
system.switch_cpus.iq.issued_per_cycle::samples      5234462                       # Number of insts issued each cycle
system.switch_cpus.iq.issued_per_cycle::mean     3.214214                       # Number of insts issued each cycle
system.switch_cpus.iq.issued_per_cycle::stdev     2.237066                       # Number of insts issued each cycle
system.switch_cpus.iq.issued_per_cycle::underflows            0      0.00%      0.00% # Number of insts issued each cycle
system.switch_cpus.iq.issued_per_cycle::0       690135     13.18%     13.18% # Number of insts issued each cycle
system.switch_cpus.iq.issued_per_cycle::1       617242     11.79%     24.98% # Number of insts issued each cycle
system.switch_cpus.iq.issued_per_cycle::2       890233     17.01%     41.98% # Number of insts issued each cycle
system.switch_cpus.iq.issued_per_cycle::3       831650     15.89%     57.87% # Number of insts issued each cycle
system.switch_cpus.iq.issued_per_cycle::4       725373     13.86%     71.73% # Number of insts issued each cycle
system.switch_cpus.iq.issued_per_cycle::5       619302     11.83%     83.56% # Number of insts issued each cycle
system.switch_cpus.iq.issued_per_cycle::6       350730      6.70%     90.26% # Number of insts issued each cycle
system.switch_cpus.iq.issued_per_cycle::7       248737      4.75%     95.01% # Number of insts issued each cycle
system.switch_cpus.iq.issued_per_cycle::8       261060      4.99%    100.00% # Number of insts issued each cycle
system.switch_cpus.iq.issued_per_cycle::overflows            0      0.00%    100.00% # Number of insts issued each cycle
system.switch_cpus.iq.issued_per_cycle::min_value            0                       # Number of insts issued each cycle
system.switch_cpus.iq.issued_per_cycle::max_value            8                       # Number of insts issued each cycle
system.switch_cpus.iq.issued_per_cycle::total      5234462                       # Number of insts issued each cycle
system.switch_cpus.iq.rate                   3.208303                       # Inst issue rate
system.switch_cpus.iq.vec_alu_accesses              0                       # Number of vector alu accesses
system.switch_cpus.iq.vec_inst_queue_reads            0                       # Number of vector instruction queue reads
system.switch_cpus.iq.vec_inst_queue_wakeup_accesses            0                       # Number of vector instruction queue wakeup accesses
system.switch_cpus.iq.vec_inst_queue_writes            0                       # Number of vector instruction queue writes
system.switch_cpus.itb.rdAccesses                   0                       # TLB accesses on read requests
system.switch_cpus.itb.rdMisses                     0                       # TLB misses on read requests
system.switch_cpus.itb.wrAccesses              858068                       # TLB accesses on write requests
system.switch_cpus.itb.wrMisses                    44                       # TLB misses on write requests
system.switch_cpus.memDep0.conflictingLoads       376678                       # Number of conflicting loads.
system.switch_cpus.memDep0.conflictingStores       319471                       # Number of conflicting stores.
system.switch_cpus.memDep0.insertedLoads      3724847                       # Number of loads inserted to the mem dependence unit.
system.switch_cpus.memDep0.insertedStores      1430389                       # Number of stores inserted to the mem dependence unit.
system.switch_cpus.misc_regfile_reads         6740240                       # number of misc regfile reads
system.switch_cpus.misc_regfile_writes              1                       # number of misc regfile writes
system.switch_cpus.numCycles                  5244105                       # number of cpu cycles simulated
system.switch_cpus.numWorkItemsCompleted            0                       # number of work items this cpu completed
system.switch_cpus.numWorkItemsStarted              0                       # number of work items this cpu started
system.switch_cpus.rename.BlockCycles          204522                       # Number of cycles rename is blocking
system.switch_cpus.rename.CommittedMaps      20732556                       # Number of HB maps that are committed
system.switch_cpus.rename.IQFullEvents         139513                       # Number of times rename has blocked due to IQ full
system.switch_cpus.rename.IdleCycles           869691                       # Number of cycles rename is idle
system.switch_cpus.rename.LQFullEvents         529524                       # Number of times rename has blocked due to LQ full
system.switch_cpus.rename.ROBFullEvents          2509                       # Number of times rename has blocked due to ROB full
system.switch_cpus.rename.RenameLookups      55011642                       # Number of register rename lookups that rename has made
system.switch_cpus.rename.RenamedInsts       17539732                       # Number of instructions processed by rename
system.switch_cpus.rename.RenamedOperands     22511171                       # Number of destination operands rename has renamed
system.switch_cpus.rename.RunCycles           2011830                       # Number of cycles rename is running
system.switch_cpus.rename.SQFullEvents        1217992                       # Number of times rename has blocked due to SQ full
system.switch_cpus.rename.SquashCycles          21206                       # Number of cycles rename is squashing
system.switch_cpus.rename.UnblockCycles       2127205                       # Number of cycles rename is unblocking
system.switch_cpus.rename.UndoneMaps          1778480                       # Number of HB maps that are undone due to squashing
system.switch_cpus.rename.fp_rename_lookups      3016007                       # Number of floating rename lookups
system.switch_cpus.rename.int_rename_lookups     30093028                       # Number of integer rename lookups
system.switch_cpus.rename.serializeStallCycles            0                       # count of cycles rename stalled for serializing inst
system.switch_cpus.rename.serializingInsts            0                       # count of serializing insts renamed
system.switch_cpus.rename.skidInsts           4082583                       # count of insts added to the skid buffer
system.switch_cpus.rename.tempSerializingInsts            0                       # count of temporary serializing insts renamed
system.switch_cpus.rob.rob_reads             21095495                       # The number of ROB reads
system.switch_cpus.rob.rob_writes            34775018                       # The number of ROB writes
system.switch_cpus.timesIdled                     144                       # Number of times that the entire CPU went into an idle state and unscheduled itself
system.tol2bus.snoop_filter.hit_multi_requests            0                       # Number of requests hitting in the snoop filter with multiple (>1) holders of the requested data.
system.tol2bus.snoop_filter.hit_multi_snoops            0                       # Number of snoops hitting in the snoop filter with multiple (>1) holders of the requested data.
system.tol2bus.snoop_filter.hit_single_requests        24699                       # Number of requests hitting in the snoop filter with a single holder of the requested data.
system.tol2bus.snoop_filter.hit_single_snoops           91                       # Number of snoops hitting in the snoop filter with a single holder of the requested data.
system.tol2bus.snoop_filter.tot_requests        50549                       # Total number of requests made to the snoop filter.
system.tol2bus.snoop_filter.tot_snoops             91                       # Total number of snoops made to the snoop filter.
system.membus.pwrStateResidencyTicks::UNDEFINED 81939690320500                       # Cumulative time (in ticks) in various power states
system.membus.trans_dist::ReadResp                676                       # Transaction distribution
system.membus.trans_dist::WritebackDirty           51                       # Transaction distribution
system.membus.trans_dist::CleanEvict               25                       # Transaction distribution
system.membus.trans_dist::ReadExReq              2080                       # Transaction distribution
system.membus.trans_dist::ReadExResp             2080                       # Transaction distribution
system.membus.trans_dist::ReadSharedReq           676                       # Transaction distribution
system.membus.pkt_count_system.l2.mem_side::system.mem_ctrls.port         5588                       # Packet count per connected master and slave (bytes)
system.membus.pkt_count_system.l2.mem_side::total         5588                       # Packet count per connected master and slave (bytes)
system.membus.pkt_count::total                   5588                       # Packet count per connected master and slave (bytes)
system.membus.pkt_size_system.l2.mem_side::system.mem_ctrls.port       179648                       # Cumulative packet size per connected master and slave (bytes)
system.membus.pkt_size_system.l2.mem_side::total       179648                       # Cumulative packet size per connected master and slave (bytes)
system.membus.pkt_size::total                  179648                       # Cumulative packet size per connected master and slave (bytes)
system.membus.snoops                                0                       # Total snoops (count)
system.membus.snoopTraffic                          0                       # Total snoop traffic (bytes)
system.membus.snoop_fanout::samples              2756                       # Request fanout histogram
system.membus.snoop_fanout::mean                    0                       # Request fanout histogram
system.membus.snoop_fanout::stdev                   0                       # Request fanout histogram
system.membus.snoop_fanout::underflows              0      0.00%      0.00% # Request fanout histogram
system.membus.snoop_fanout::0                    2756    100.00%    100.00% # Request fanout histogram
system.membus.snoop_fanout::1                       0      0.00%    100.00% # Request fanout histogram
system.membus.snoop_fanout::overflows               0      0.00%    100.00% # Request fanout histogram
system.membus.snoop_fanout::min_value               0                       # Request fanout histogram
system.membus.snoop_fanout::max_value               0                       # Request fanout histogram
system.membus.snoop_fanout::total                2756                       # Request fanout histogram
system.membus.reqLayer2.occupancy             3736000                       # Layer occupancy (ticks)
system.membus.reqLayer2.utilization               0.1                       # Layer utilization (%)
system.membus.respLayer1.occupancy           14632250                       # Layer occupancy (ticks)
system.membus.respLayer1.utilization              0.6                       # Layer utilization (%)
system.switch_cpus.pwrStateResidencyTicks::OFF   2622063000                       # Cumulative time (in ticks) in various power states
system.switch_cpus.dtb.walker.pwrStateResidencyTicks::UNDEFINED 81939690320500                       # Cumulative time (in ticks) in various power states
system.switch_cpus.itb.walker.pwrStateResidencyTicks::UNDEFINED 81939690320500                       # Cumulative time (in ticks) in various power states
system.tol2bus.pwrStateResidencyTicks::UNDEFINED 81939690320500                       # Cumulative time (in ticks) in various power states
system.tol2bus.trans_dist::ReadResp              6526                       # Transaction distribution
system.tol2bus.trans_dist::WritebackDirty        19055                       # Transaction distribution
system.tol2bus.trans_dist::WritebackClean          248                       # Transaction distribution
system.tol2bus.trans_dist::CleanEvict            5551                       # Transaction distribution
system.tol2bus.trans_dist::ReadExReq            19324                       # Transaction distribution
system.tol2bus.trans_dist::ReadExResp           19324                       # Transaction distribution
system.tol2bus.trans_dist::ReadCleanReq           375                       # Transaction distribution
system.tol2bus.trans_dist::ReadSharedReq         6151                       # Transaction distribution
system.tol2bus.pkt_count_system.cpu.icache.mem_side::system.l2.cpu_side          998                       # Packet count per connected master and slave (bytes)
system.tol2bus.pkt_count_system.cpu.dcache.mem_side::system.l2.cpu_side        75401                       # Packet count per connected master and slave (bytes)
system.tol2bus.pkt_count::total                 76399                       # Packet count per connected master and slave (bytes)
system.tol2bus.pkt_size_system.cpu.icache.mem_side::system.l2.cpu_side        39872                       # Cumulative packet size per connected master and slave (bytes)
system.tol2bus.pkt_size_system.cpu.dcache.mem_side::system.l2.cpu_side      2846656                       # Cumulative packet size per connected master and slave (bytes)
system.tol2bus.pkt_size::total                2886528                       # Cumulative packet size per connected master and slave (bytes)
system.tol2bus.snoops                             155                       # Total snoops (count)
system.tol2bus.snoopTraffic                      3264                       # Total snoop traffic (bytes)
system.tol2bus.snoop_fanout::samples            26005                       # Request fanout histogram
system.tol2bus.snoop_fanout::mean            0.003499                       # Request fanout histogram
system.tol2bus.snoop_fanout::stdev           0.059053                       # Request fanout histogram
system.tol2bus.snoop_fanout::underflows             0      0.00%      0.00% # Request fanout histogram
system.tol2bus.snoop_fanout::0                  25914     99.65%     99.65% # Request fanout histogram
system.tol2bus.snoop_fanout::1                     91      0.35%    100.00% # Request fanout histogram
system.tol2bus.snoop_fanout::2                      0      0.00%    100.00% # Request fanout histogram
system.tol2bus.snoop_fanout::3                      0      0.00%    100.00% # Request fanout histogram
system.tol2bus.snoop_fanout::4                      0      0.00%    100.00% # Request fanout histogram
system.tol2bus.snoop_fanout::overflows              0      0.00%    100.00% # Request fanout histogram
system.tol2bus.snoop_fanout::min_value              0                       # Request fanout histogram
system.tol2bus.snoop_fanout::max_value              1                       # Request fanout histogram
system.tol2bus.snoop_fanout::total              26005                       # Request fanout histogram
system.tol2bus.reqLayer0.occupancy           44523000                       # Layer occupancy (ticks)
system.tol2bus.reqLayer0.utilization              1.7                       # Layer utilization (%)
system.tol2bus.respLayer1.occupancy          38203500                       # Layer occupancy (ticks)
system.tol2bus.respLayer1.utilization             1.5                       # Layer utilization (%)
system.tol2bus.respLayer0.occupancy            561998                       # Layer occupancy (ticks)
system.tol2bus.respLayer0.utilization             0.0                       # Layer utilization (%)
system.voltage_domain.voltage                       1                       # Voltage in Volts
system.clk_domain.clock                          1000                       # Clock period in ticks
system.l2.pwrStateResidencyTicks::UNDEFINED 81939690320500                       # Cumulative time (in ticks) in various power states
system.l2.demand_hits::.switch_cpus.inst          243                       # number of demand (read+write) hits
system.l2.demand_hits::.switch_cpus.data        22851                       # number of demand (read+write) hits
system.l2.demand_hits::total                    23094                       # number of demand (read+write) hits
system.l2.overall_hits::.switch_cpus.inst          243                       # number of overall hits
system.l2.overall_hits::.switch_cpus.data        22851                       # number of overall hits
system.l2.overall_hits::total                   23094                       # number of overall hits
system.l2.demand_misses::.cpu.inst                  1                       # number of demand (read+write) misses
system.l2.demand_misses::.cpu.data                  6                       # number of demand (read+write) misses
system.l2.demand_misses::.switch_cpus.inst          131                       # number of demand (read+write) misses
system.l2.demand_misses::.switch_cpus.data         2618                       # number of demand (read+write) misses
system.l2.demand_misses::total                   2756                       # number of demand (read+write) misses
system.l2.overall_misses::.cpu.inst                 1                       # number of overall misses
system.l2.overall_misses::.cpu.data                 6                       # number of overall misses
system.l2.overall_misses::.switch_cpus.inst          131                       # number of overall misses
system.l2.overall_misses::.switch_cpus.data         2618                       # number of overall misses
system.l2.overall_misses::total                  2756                       # number of overall misses
system.l2.demand_miss_latency::.switch_cpus.inst     10871000                       # number of demand (read+write) miss cycles
system.l2.demand_miss_latency::.switch_cpus.data    207139500                       # number of demand (read+write) miss cycles
system.l2.demand_miss_latency::total        218010500                       # number of demand (read+write) miss cycles
system.l2.overall_miss_latency::.switch_cpus.inst     10871000                       # number of overall miss cycles
system.l2.overall_miss_latency::.switch_cpus.data    207139500                       # number of overall miss cycles
system.l2.overall_miss_latency::total       218010500                       # number of overall miss cycles
system.l2.demand_accesses::.cpu.inst                1                       # number of demand (read+write) accesses
system.l2.demand_accesses::.cpu.data                6                       # number of demand (read+write) accesses
system.l2.demand_accesses::.switch_cpus.inst          374                       # number of demand (read+write) accesses
system.l2.demand_accesses::.switch_cpus.data        25469                       # number of demand (read+write) accesses
system.l2.demand_accesses::total                25850                       # number of demand (read+write) accesses
system.l2.overall_accesses::.cpu.inst               1                       # number of overall (read+write) accesses
system.l2.overall_accesses::.cpu.data               6                       # number of overall (read+write) accesses
system.l2.overall_accesses::.switch_cpus.inst          374                       # number of overall (read+write) accesses
system.l2.overall_accesses::.switch_cpus.data        25469                       # number of overall (read+write) accesses
system.l2.overall_accesses::total               25850                       # number of overall (read+write) accesses
system.l2.demand_miss_rate::.cpu.inst               1                       # miss rate for demand accesses
system.l2.demand_miss_rate::.cpu.data               1                       # miss rate for demand accesses
system.l2.demand_miss_rate::.switch_cpus.inst     0.350267                       # miss rate for demand accesses
system.l2.demand_miss_rate::.switch_cpus.data     0.102792                       # miss rate for demand accesses
system.l2.demand_miss_rate::total            0.106615                       # miss rate for demand accesses
system.l2.overall_miss_rate::.cpu.inst              1                       # miss rate for overall accesses
system.l2.overall_miss_rate::.cpu.data              1                       # miss rate for overall accesses
system.l2.overall_miss_rate::.switch_cpus.inst     0.350267                       # miss rate for overall accesses
system.l2.overall_miss_rate::.switch_cpus.data     0.102792                       # miss rate for overall accesses
system.l2.overall_miss_rate::total           0.106615                       # miss rate for overall accesses
system.l2.demand_avg_miss_latency::.switch_cpus.inst 82984.732824                       # average overall miss latency
system.l2.demand_avg_miss_latency::.switch_cpus.data 79121.275783                       # average overall miss latency
system.l2.demand_avg_miss_latency::total 79103.955007                       # average overall miss latency
system.l2.overall_avg_miss_latency::.switch_cpus.inst 82984.732824                       # average overall miss latency
system.l2.overall_avg_miss_latency::.switch_cpus.data 79121.275783                       # average overall miss latency
system.l2.overall_avg_miss_latency::total 79103.955007                       # average overall miss latency
system.l2.blocked_cycles::no_mshrs                  0                       # number of cycles access was blocked
system.l2.blocked_cycles::no_targets                0                       # number of cycles access was blocked
system.l2.blocked::no_mshrs                         0                       # number of cycles access was blocked
system.l2.blocked::no_targets                       0                       # number of cycles access was blocked
system.l2.avg_blocked_cycles::no_mshrs            nan                       # average number of cycles each access was blocked
system.l2.avg_blocked_cycles::no_targets          nan                       # average number of cycles each access was blocked
system.l2.writebacks::.writebacks                  51                       # number of writebacks
system.l2.writebacks::total                        51                       # number of writebacks
system.l2.demand_mshr_misses::.switch_cpus.inst          131                       # number of demand (read+write) MSHR misses
system.l2.demand_mshr_misses::.switch_cpus.data         2618                       # number of demand (read+write) MSHR misses
system.l2.demand_mshr_misses::total              2749                       # number of demand (read+write) MSHR misses
system.l2.overall_mshr_misses::.switch_cpus.inst          131                       # number of overall MSHR misses
system.l2.overall_mshr_misses::.switch_cpus.data         2618                       # number of overall MSHR misses
system.l2.overall_mshr_misses::total             2749                       # number of overall MSHR misses
system.l2.demand_mshr_miss_latency::.switch_cpus.inst      9561000                       # number of demand (read+write) MSHR miss cycles
system.l2.demand_mshr_miss_latency::.switch_cpus.data    180959500                       # number of demand (read+write) MSHR miss cycles
system.l2.demand_mshr_miss_latency::total    190520500                       # number of demand (read+write) MSHR miss cycles
system.l2.overall_mshr_miss_latency::.switch_cpus.inst      9561000                       # number of overall MSHR miss cycles
system.l2.overall_mshr_miss_latency::.switch_cpus.data    180959500                       # number of overall MSHR miss cycles
system.l2.overall_mshr_miss_latency::total    190520500                       # number of overall MSHR miss cycles
system.l2.demand_mshr_miss_rate::.switch_cpus.inst     0.350267                       # mshr miss rate for demand accesses
system.l2.demand_mshr_miss_rate::.switch_cpus.data     0.102792                       # mshr miss rate for demand accesses
system.l2.demand_mshr_miss_rate::total       0.106344                       # mshr miss rate for demand accesses
system.l2.overall_mshr_miss_rate::.switch_cpus.inst     0.350267                       # mshr miss rate for overall accesses
system.l2.overall_mshr_miss_rate::.switch_cpus.data     0.102792                       # mshr miss rate for overall accesses
system.l2.overall_mshr_miss_rate::total      0.106344                       # mshr miss rate for overall accesses
system.l2.demand_avg_mshr_miss_latency::.switch_cpus.inst 72984.732824                       # average overall mshr miss latency
system.l2.demand_avg_mshr_miss_latency::.switch_cpus.data 69121.275783                       # average overall mshr miss latency
system.l2.demand_avg_mshr_miss_latency::total 69305.383776                       # average overall mshr miss latency
system.l2.overall_avg_mshr_miss_latency::.switch_cpus.inst 72984.732824                       # average overall mshr miss latency
system.l2.overall_avg_mshr_miss_latency::.switch_cpus.data 69121.275783                       # average overall mshr miss latency
system.l2.overall_avg_mshr_miss_latency::total 69305.383776                       # average overall mshr miss latency
system.l2.replacements                            155                       # number of replacements
system.l2.WritebackDirty_hits::.writebacks        19004                       # number of WritebackDirty hits
system.l2.WritebackDirty_hits::total            19004                       # number of WritebackDirty hits
system.l2.WritebackDirty_accesses::.writebacks        19004                       # number of WritebackDirty accesses(hits+misses)
system.l2.WritebackDirty_accesses::total        19004                       # number of WritebackDirty accesses(hits+misses)
system.l2.WritebackClean_hits::.writebacks          248                       # number of WritebackClean hits
system.l2.WritebackClean_hits::total              248                       # number of WritebackClean hits
system.l2.WritebackClean_accesses::.writebacks          248                       # number of WritebackClean accesses(hits+misses)
system.l2.WritebackClean_accesses::total          248                       # number of WritebackClean accesses(hits+misses)
system.l2.CleanEvict_mshr_misses::.writebacks           12                       # number of CleanEvict MSHR misses
system.l2.CleanEvict_mshr_misses::total            12                       # number of CleanEvict MSHR misses
system.l2.CleanEvict_mshr_miss_rate::.writebacks          inf                       # mshr miss rate for CleanEvict accesses
system.l2.CleanEvict_mshr_miss_rate::total          inf                       # mshr miss rate for CleanEvict accesses
system.l2.ReadExReq_hits::.switch_cpus.data        17244                       # number of ReadExReq hits
system.l2.ReadExReq_hits::total                 17244                       # number of ReadExReq hits
system.l2.ReadExReq_misses::.cpu.data               1                       # number of ReadExReq misses
system.l2.ReadExReq_misses::.switch_cpus.data         2079                       # number of ReadExReq misses
system.l2.ReadExReq_misses::total                2080                       # number of ReadExReq misses
system.l2.ReadExReq_miss_latency::.switch_cpus.data    160807000                       # number of ReadExReq miss cycles
system.l2.ReadExReq_miss_latency::total     160807000                       # number of ReadExReq miss cycles
system.l2.ReadExReq_accesses::.cpu.data             1                       # number of ReadExReq accesses(hits+misses)
system.l2.ReadExReq_accesses::.switch_cpus.data        19323                       # number of ReadExReq accesses(hits+misses)
system.l2.ReadExReq_accesses::total             19324                       # number of ReadExReq accesses(hits+misses)
system.l2.ReadExReq_miss_rate::.cpu.data            1                       # miss rate for ReadExReq accesses
system.l2.ReadExReq_miss_rate::.switch_cpus.data     0.107592                       # miss rate for ReadExReq accesses
system.l2.ReadExReq_miss_rate::total         0.107638                       # miss rate for ReadExReq accesses
system.l2.ReadExReq_avg_miss_latency::.switch_cpus.data 77348.244348                       # average ReadExReq miss latency
system.l2.ReadExReq_avg_miss_latency::total 77311.057692                       # average ReadExReq miss latency
system.l2.ReadExReq_mshr_misses::.switch_cpus.data         2079                       # number of ReadExReq MSHR misses
system.l2.ReadExReq_mshr_misses::total           2079                       # number of ReadExReq MSHR misses
system.l2.ReadExReq_mshr_miss_latency::.switch_cpus.data    140017000                       # number of ReadExReq MSHR miss cycles
system.l2.ReadExReq_mshr_miss_latency::total    140017000                       # number of ReadExReq MSHR miss cycles
system.l2.ReadExReq_mshr_miss_rate::.switch_cpus.data     0.107592                       # mshr miss rate for ReadExReq accesses
system.l2.ReadExReq_mshr_miss_rate::total     0.107586                       # mshr miss rate for ReadExReq accesses
system.l2.ReadExReq_avg_mshr_miss_latency::.switch_cpus.data 67348.244348                       # average ReadExReq mshr miss latency
system.l2.ReadExReq_avg_mshr_miss_latency::total 67348.244348                       # average ReadExReq mshr miss latency
system.l2.ReadCleanReq_hits::.switch_cpus.inst          243                       # number of ReadCleanReq hits
system.l2.ReadCleanReq_hits::total                243                       # number of ReadCleanReq hits
system.l2.ReadCleanReq_misses::.cpu.inst            1                       # number of ReadCleanReq misses
system.l2.ReadCleanReq_misses::.switch_cpus.inst          131                       # number of ReadCleanReq misses
system.l2.ReadCleanReq_misses::total              132                       # number of ReadCleanReq misses
system.l2.ReadCleanReq_miss_latency::.switch_cpus.inst     10871000                       # number of ReadCleanReq miss cycles
system.l2.ReadCleanReq_miss_latency::total     10871000                       # number of ReadCleanReq miss cycles
system.l2.ReadCleanReq_accesses::.cpu.inst            1                       # number of ReadCleanReq accesses(hits+misses)
system.l2.ReadCleanReq_accesses::.switch_cpus.inst          374                       # number of ReadCleanReq accesses(hits+misses)
system.l2.ReadCleanReq_accesses::total            375                       # number of ReadCleanReq accesses(hits+misses)
system.l2.ReadCleanReq_miss_rate::.cpu.inst            1                       # miss rate for ReadCleanReq accesses
system.l2.ReadCleanReq_miss_rate::.switch_cpus.inst     0.350267                       # miss rate for ReadCleanReq accesses
[...]
system.cpu.itb_walker_cache.blocked_cycles::no_targets            0                       # number of cycles access was blocked
system.cpu.itb_walker_cache.blocked::no_mshrs            0                       # number of cycles access was blocked
system.cpu.itb_walker_cache.blocked::no_targets            0                       # number of cycles access was blocked
system.cpu.itb_walker_cache.avg_blocked_cycles::no_mshrs          nan                       # average number of cycles each access was blocked
system.cpu.itb_walker_cache.avg_blocked_cycles::no_targets          nan                       # average number of cycles each access was blocked
system.cpu.itb_walker_cache.replacements            0                       # number of replacements
system.cpu.itb_walker_cache.tags.pwrStateResidencyTicks::UNDEFINED 81947139211500                       # Cumulative time (in ticks) in various power states
system.cpu.itb_walker_cache.tags.tagsinuse            0                       # Cycle average of tags in use
system.cpu.itb_walker_cache.tags.total_refs            0                       # Total number of references to valid blocks.
system.cpu.itb_walker_cache.tags.sampled_refs            0                       # Sample count of references to valid blocks.
system.cpu.itb_walker_cache.tags.avg_refs          nan                       # Average number of references to valid blocks.
system.cpu.itb_walker_cache.tags.warmup_cycle            0                       # Cycle when the warmup percentage was hit.
system.cpu.itb_walker_cache.tags.tag_accesses            0                       # Number of tag accesses
system.cpu.itb_walker_cache.tags.data_accesses            0                       # Number of data accesses
system.cpu.itb.walker.pwrStateResidencyTicks::UNDEFINED 81947139211500                       # Cumulative time (in ticks) in various power states
system.cpu.dtb_walker_cache.pwrStateResidencyTicks::UNDEFINED 81947139211500                       # Cumulative time (in ticks) in various power states
system.cpu.dtb_walker_cache.blocked_cycles::no_mshrs            0                       # number of cycles access was blocked
system.cpu.dtb_walker_cache.blocked_cycles::no_targets            0                       # number of cycles access was blocked
system.cpu.dtb_walker_cache.blocked::no_mshrs            0                       # number of cycles access was blocked
system.cpu.dtb_walker_cache.blocked::no_targets            0                       # number of cycles access was blocked
system.cpu.dtb_walker_cache.avg_blocked_cycles::no_mshrs          nan                       # average number of cycles each access was blocked
system.cpu.dtb_walker_cache.avg_blocked_cycles::no_targets          nan                       # average number of cycles each access was blocked
system.cpu.dtb_walker_cache.replacements            0                       # number of replacements
system.cpu.dtb_walker_cache.tags.pwrStateResidencyTicks::UNDEFINED 81947139211500                       # Cumulative time (in ticks) in various power states
system.cpu.dtb_walker_cache.tags.tagsinuse            0                       # Cycle average of tags in use
system.cpu.dtb_walker_cache.tags.total_refs            0                       # Total number of references to valid blocks.
system.cpu.dtb_walker_cache.tags.sampled_refs            0                       # Sample count of references to valid blocks.
system.cpu.dtb_walker_cache.tags.avg_refs          nan                       # Average number of references to valid blocks.
system.cpu.dtb_walker_cache.tags.warmup_cycle            0                       # Cycle when the warmup percentage was hit.
system.cpu.dtb_walker_cache.tags.tag_accesses            0                       # Number of tag accesses
system.cpu.dtb_walker_cache.tags.data_accesses            0                       # Number of data accesses
system.cpu.dcache.pwrStateResidencyTicks::UNDEFINED 81947139211500                       # Cumulative time (in ticks) in various power states
system.cpu.dcache.demand_hits::.cpu.data            1                       # number of demand (read+write) hits
system.cpu.dcache.demand_hits::.switch_cpus.data     18672702                       # number of demand (read+write) hits
system.cpu.dcache.demand_hits::total         18672703                       # number of demand (read+write) hits
system.cpu.dcache.overall_hits::.cpu.data            1                       # number of overall hits
system.cpu.dcache.overall_hits::.switch_cpus.data     18672702                       # number of overall hits
system.cpu.dcache.overall_hits::total        18672703                       # number of overall hits
system.cpu.dcache.demand_misses::.cpu.data            6                       # number of demand (read+write) misses
system.cpu.dcache.demand_misses::.switch_cpus.data       108544                       # number of demand (read+write) misses
system.cpu.dcache.demand_misses::total         108550                       # number of demand (read+write) misses
system.cpu.dcache.overall_misses::.cpu.data            6                       # number of overall misses
system.cpu.dcache.overall_misses::.switch_cpus.data       108544                       # number of overall misses
system.cpu.dcache.overall_misses::total        108550                       # number of overall misses
system.cpu.dcache.demand_miss_latency::.switch_cpus.data   1671982986                       # number of demand (read+write) miss cycles
system.cpu.dcache.demand_miss_latency::total   1671982986                       # number of demand (read+write) miss cycles
system.cpu.dcache.overall_miss_latency::.switch_cpus.data   1671982986                       # number of overall miss cycles
system.cpu.dcache.overall_miss_latency::total   1671982986                       # number of overall miss cycles
system.cpu.dcache.demand_accesses::.cpu.data            7                       # number of demand (read+write) accesses
system.cpu.dcache.demand_accesses::.switch_cpus.data     18781246                       # number of demand (read+write) accesses
system.cpu.dcache.demand_accesses::total     18781253                       # number of demand (read+write) accesses
system.cpu.dcache.overall_accesses::.cpu.data            7                       # number of overall (read+write) accesses
system.cpu.dcache.overall_accesses::.switch_cpus.data     18781246                       # number of overall (read+write) accesses
system.cpu.dcache.overall_accesses::total     18781253                       # number of overall (read+write) accesses
system.cpu.dcache.demand_miss_rate::.cpu.data     0.857143                       # miss rate for demand accesses
system.cpu.dcache.demand_miss_rate::.switch_cpus.data     0.005779                       # miss rate for demand accesses
system.cpu.dcache.demand_miss_rate::total     0.005780                       # miss rate for demand accesses
system.cpu.dcache.overall_miss_rate::.cpu.data     0.857143                       # miss rate for overall accesses
system.cpu.dcache.overall_miss_rate::.switch_cpus.data     0.005779                       # miss rate for overall accesses
system.cpu.dcache.overall_miss_rate::total     0.005780                       # miss rate for overall accesses
system.cpu.dcache.demand_avg_miss_latency::.switch_cpus.data 15403.734762                       # average overall miss latency
system.cpu.dcache.demand_avg_miss_latency::total 15402.883335                       # average overall miss latency
system.cpu.dcache.overall_avg_miss_latency::.switch_cpus.data 15403.734762                       # average overall miss latency
system.cpu.dcache.overall_avg_miss_latency::total 15402.883335                       # average overall miss latency
system.cpu.dcache.blocked_cycles::no_mshrs         6378                       # number of cycles access was blocked
system.cpu.dcache.blocked_cycles::no_targets          118                       # number of cycles access was blocked
system.cpu.dcache.blocked::no_mshrs               653                       # number of cycles access was blocked
system.cpu.dcache.blocked::no_targets               1                       # number of cycles access was blocked
system.cpu.dcache.avg_blocked_cycles::no_mshrs     9.767228                       # average number of cycles each access was blocked
system.cpu.dcache.avg_blocked_cycles::no_targets          118                       # average number of cycles each access was blocked
system.cpu.dcache.writebacks::.writebacks        81640                       # number of writebacks
system.cpu.dcache.writebacks::total             81640                       # number of writebacks
system.cpu.dcache.demand_mshr_hits::.switch_cpus.data         3570                       # number of demand (read+write) MSHR hits
system.cpu.dcache.demand_mshr_hits::total         3570                       # number of demand (read+write) MSHR hits
system.cpu.dcache.overall_mshr_hits::.switch_cpus.data         3570                       # number of overall MSHR hits
system.cpu.dcache.overall_mshr_hits::total         3570                       # number of overall MSHR hits
system.cpu.dcache.demand_mshr_misses::.switch_cpus.data       104974                       # number of demand (read+write) MSHR misses
system.cpu.dcache.demand_mshr_misses::total       104974                       # number of demand (read+write) MSHR misses
system.cpu.dcache.overall_mshr_misses::.switch_cpus.data       104974                       # number of overall MSHR misses
system.cpu.dcache.overall_mshr_misses::total       104974                       # number of overall MSHR misses
system.cpu.dcache.demand_mshr_miss_latency::.switch_cpus.data   1524193486                       # number of demand (read+write) MSHR miss cycles
system.cpu.dcache.demand_mshr_miss_latency::total   1524193486                       # number of demand (read+write) MSHR miss cycles
system.cpu.dcache.overall_mshr_miss_latency::.switch_cpus.data   1524193486                       # number of overall MSHR miss cycles
system.cpu.dcache.overall_mshr_miss_latency::total   1524193486                       # number of overall MSHR miss cycles
system.cpu.dcache.demand_mshr_miss_rate::.switch_cpus.data     0.005589                       # mshr miss rate for demand accesses
system.cpu.dcache.demand_mshr_miss_rate::total     0.005589                       # mshr miss rate for demand accesses
system.cpu.dcache.overall_mshr_miss_rate::.switch_cpus.data     0.005589                       # mshr miss rate for overall accesses
system.cpu.dcache.overall_mshr_miss_rate::total     0.005589                       # mshr miss rate for overall accesses
system.cpu.dcache.demand_avg_mshr_miss_latency::.switch_cpus.data 14519.723798                       # average overall mshr miss latency
system.cpu.dcache.demand_avg_mshr_miss_latency::total 14519.723798                       # average overall mshr miss latency
system.cpu.dcache.overall_avg_mshr_miss_latency::.switch_cpus.data 14519.723798                       # average overall mshr miss latency
system.cpu.dcache.overall_avg_mshr_miss_latency::total 14519.723798                       # average overall mshr miss latency
system.cpu.dcache.replacements                 103956                       # number of replacements
system.cpu.dcache.ReadReq_hits::.switch_cpus.data     13162890                       # number of ReadReq hits
system.cpu.dcache.ReadReq_hits::total        13162890                       # number of ReadReq hits
system.cpu.dcache.ReadReq_misses::.cpu.data            5                       # number of ReadReq misses
system.cpu.dcache.ReadReq_misses::.switch_cpus.data        28267                       # number of ReadReq misses
system.cpu.dcache.ReadReq_misses::total         28272                       # number of ReadReq misses
system.cpu.dcache.ReadReq_miss_latency::.switch_cpus.data    427763000                       # number of ReadReq miss cycles
system.cpu.dcache.ReadReq_miss_latency::total    427763000                       # number of ReadReq miss cycles
system.cpu.dcache.ReadReq_accesses::.cpu.data            5                       # number of ReadReq accesses(hits+misses)
system.cpu.dcache.ReadReq_accesses::.switch_cpus.data     13191157                       # number of ReadReq accesses(hits+misses)
system.cpu.dcache.ReadReq_accesses::total     13191162                       # number of ReadReq accesses(hits+misses)
system.cpu.dcache.ReadReq_miss_rate::.cpu.data            1                       # miss rate for ReadReq accesses
system.cpu.dcache.ReadReq_miss_rate::.switch_cpus.data     0.002143                       # miss rate for ReadReq accesses
system.cpu.dcache.ReadReq_miss_rate::total     0.002143                       # miss rate for ReadReq accesses
system.cpu.dcache.ReadReq_avg_miss_latency::.switch_cpus.data 15132.946545                       # average ReadReq miss latency
system.cpu.dcache.ReadReq_avg_miss_latency::total 15130.270232                       # average ReadReq miss latency
system.cpu.dcache.ReadReq_mshr_hits::.switch_cpus.data         3569                       # number of ReadReq MSHR hits
system.cpu.dcache.ReadReq_mshr_hits::total         3569                       # number of ReadReq MSHR hits
system.cpu.dcache.ReadReq_mshr_misses::.switch_cpus.data        24698                       # number of ReadReq MSHR misses
system.cpu.dcache.ReadReq_mshr_misses::total        24698                       # number of ReadReq MSHR misses
system.cpu.dcache.ReadReq_mshr_miss_latency::.switch_cpus.data    360287000                       # number of ReadReq MSHR miss cycles
system.cpu.dcache.ReadReq_mshr_miss_latency::total    360287000                       # number of ReadReq MSHR miss cycles
system.cpu.dcache.ReadReq_mshr_miss_rate::.switch_cpus.data     0.001872                       # mshr miss rate for ReadReq accesses
system.cpu.dcache.ReadReq_mshr_miss_rate::total     0.001872                       # mshr miss rate for ReadReq accesses
system.cpu.dcache.ReadReq_avg_mshr_miss_latency::.switch_cpus.data 14587.699409                       # average ReadReq mshr miss latency
system.cpu.dcache.ReadReq_avg_mshr_miss_latency::total 14587.699409                       # average ReadReq mshr miss latency
system.cpu.dcache.WriteReq_hits::.cpu.data            1                       # number of WriteReq hits
system.cpu.dcache.WriteReq_hits::.switch_cpus.data      5509812                       # number of WriteReq hits
system.cpu.dcache.WriteReq_hits::total        5509813                       # number of WriteReq hits
system.cpu.dcache.WriteReq_misses::.cpu.data            1                       # number of WriteReq misses
system.cpu.dcache.WriteReq_misses::.switch_cpus.data        80277                       # number of WriteReq misses
system.cpu.dcache.WriteReq_misses::total        80278                       # number of WriteReq misses
system.cpu.dcache.WriteReq_miss_latency::.switch_cpus.data   1244219986                       # number of WriteReq miss cycles
system.cpu.dcache.WriteReq_miss_latency::total   1244219986                       # number of WriteReq miss cycles
system.cpu.dcache.WriteReq_accesses::.cpu.data            2                       # number of WriteReq accesses(hits+misses)
system.cpu.dcache.WriteReq_accesses::.switch_cpus.data      5590089                       # number of WriteReq accesses(hits+misses)
system.cpu.dcache.WriteReq_accesses::total      5590091                       # number of WriteReq accesses(hits+misses)
system.cpu.dcache.WriteReq_miss_rate::.cpu.data     0.500000                       # miss rate for WriteReq accesses
system.cpu.dcache.WriteReq_miss_rate::.switch_cpus.data     0.014361                       # miss rate for WriteReq accesses
system.cpu.dcache.WriteReq_miss_rate::total     0.014361                       # miss rate for WriteReq accesses
system.cpu.dcache.WriteReq_avg_miss_latency::.switch_cpus.data 15499.084246                       # average WriteReq miss latency
system.cpu.dcache.WriteReq_avg_miss_latency::total 15498.891178                       # average WriteReq miss latency
system.cpu.dcache.WriteReq_mshr_hits::.switch_cpus.data            1                       # number of WriteReq MSHR hits
system.cpu.dcache.WriteReq_mshr_hits::total            1                       # number of WriteReq MSHR hits
system.cpu.dcache.WriteReq_mshr_misses::.switch_cpus.data        80276                       # number of WriteReq MSHR misses
system.cpu.dcache.WriteReq_mshr_misses::total        80276                       # number of WriteReq MSHR misses
system.cpu.dcache.WriteReq_mshr_miss_latency::.switch_cpus.data   1163906486                       # number of WriteReq MSHR miss cycles
system.cpu.dcache.WriteReq_mshr_miss_latency::total   1163906486                       # number of WriteReq MSHR miss cycles
system.cpu.dcache.WriteReq_mshr_miss_rate::.switch_cpus.data     0.014360                       # mshr miss rate for WriteReq accesses
system.cpu.dcache.WriteReq_mshr_miss_rate::total     0.014360                       # mshr miss rate for WriteReq accesses
system.cpu.dcache.WriteReq_avg_mshr_miss_latency::.switch_cpus.data 14498.810180                       # average WriteReq mshr miss latency
system.cpu.dcache.WriteReq_avg_mshr_miss_latency::total 14498.810180                       # average WriteReq mshr miss latency
system.cpu.dcache.tags.pwrStateResidencyTicks::UNDEFINED 81947139211500                       # Cumulative time (in ticks) in various power states
system.cpu.dcache.tags.tagsinuse             0.124554                       # Cycle average of tags in use
system.cpu.dcache.tags.total_refs            18777683                       # Total number of references to valid blocks.
system.cpu.dcache.tags.sampled_refs            104980                       # Sample count of references to valid blocks.
system.cpu.dcache.tags.avg_refs            178.869147                       # Average number of references to valid blocks.
system.cpu.dcache.tags.warmup_cycle      81937068258000                       # Cycle when the warmup percentage was hit.
system.cpu.dcache.tags.occ_blocks::.cpu.data     0.000373                       # Average occupied blocks per requestor
system.cpu.dcache.tags.occ_blocks::.switch_cpus.data     0.124181                       # Average occupied blocks per requestor
system.cpu.dcache.tags.occ_percent::.cpu.data     0.000000                       # Average percentage of cache occupancy
system.cpu.dcache.tags.occ_percent::.switch_cpus.data     0.000121                       # Average percentage of cache occupancy
system.cpu.dcache.tags.occ_percent::total     0.000122                       # Average percentage of cache occupancy
system.cpu.dcache.tags.occ_task_id_blocks::1024         1024                       # Occupied blocks per task id
system.cpu.dcache.tags.age_task_id_blocks_1024::0           54                       # Occupied blocks per task id
system.cpu.dcache.tags.age_task_id_blocks_1024::1          596                       # Occupied blocks per task id
system.cpu.dcache.tags.age_task_id_blocks_1024::2          335                       # Occupied blocks per task id
system.cpu.dcache.tags.age_task_id_blocks_1024::3           14                       # Occupied blocks per task id
system.cpu.dcache.tags.age_task_id_blocks_1024::4           25                       # Occupied blocks per task id
system.cpu.dcache.tags.occ_task_id_percent::1024            1                       # Percentage of cache occupancy per task id
system.cpu.dcache.tags.tag_accesses          37667486                       # Number of tag accesses
system.cpu.dcache.tags.data_accesses         37667486                       # Number of data accesses

---------- End Simulation Statistics   ----------
