
---------- Begin Simulation Statistics ----------
final_tick                               136226791034500                       # Number of ticks from beginning of simulation (restored from checkpoints and never reset)
host_inst_rate                                 735777                       # Simulator instruction rate (inst/s)
host_mem_usage                                 830128                       # Number of bytes of host memory used
host_op_rate                                  1501693                       # Simulator op (including micro ops) rate (op/s)
host_seconds                                    13.59                       # Real time elapsed on the host
host_tick_rate                              912694416                       # Simulator tick rate (ticks/s)
sim_freq                                 1000000000000                       # Frequency of simulated ticks
sim_insts                                    10000001                       # Number of instructions simulated
sim_ops                                      20409924                       # Number of ops (including micro ops) simulated
sim_seconds                                  0.012405                       # Number of seconds simulated
sim_ticks                                 12404713250                       # Number of ticks simulated
system.cpu.branchPred.BTBCorrect                    0                       # Number of correct BTB predictions (this stat may not work properly.
system.cpu.branchPred.BTBHitPct                   nan                       # BTB Hit Percentage
system.cpu.branchPred.BTBHits                       0                       # Number of BTB hits
system.cpu.branchPred.BTBLookups                    0                       # Number of BTB lookups
system.cpu.branchPred.RASInCorrect                  0                       # Number of incorrect RAS predictions.
system.cpu.branchPred.condIncorrect                 1                       # Number of conditional branches incorrect
system.cpu.branchPred.condPredicted                 1                       # Number of conditional branches predicted
system.cpu.branchPred.indirectHits                  0                       # Number of indirect target hits.
system.cpu.branchPred.indirectLookups               0                       # Number of indirect predictor lookups.
system.cpu.branchPred.indirectMisses                0                       # Number of indirect misses.
system.cpu.branchPred.lookups                       2                       # Number of BP lookups
system.cpu.branchPred.usedRAS                       1                       # Number of times the RAS was used to get a target.
system.cpu.branchPredindirectMispredicted            0                       # Number of mispredicted indirect branches.
system.cpu.cc_regfile_reads                        11                       # number of cc regfile reads
system.cpu.cc_regfile_writes                        4                       # number of cc regfile writes
system.cpu.commit.amos                              0                       # Number of atomic instructions committed
system.cpu.commit.branchMispredicts                 2                       # The number of times a branch was mispredicted
system.cpu.commit.branches                          0                       # Number of branches committed
system.cpu.commit.bw_lim_events                     0                       # number cycles where commit BW limit reached
system.cpu.commit.commitSquashedInsts              11                       # The number of squashed insts skipped by commit
system.cpu.commit.committedInsts                    1                       # Number of instructions committed
system.cpu.commit.committedOps                      2                       # Number of ops (including micro ops) committed
system.cpu.commit.committed_per_cycle::samples           34                       # Number of insts commited each cycle
system.cpu.commit.committed_per_cycle::mean     0.058824                       # Number of insts commited each cycle
system.cpu.commit.committed_per_cycle::stdev     0.342997                       # Number of insts commited each cycle
system.cpu.commit.committed_per_cycle::underflows            0      0.00%      0.00% # Number of insts commited each cycle
system.cpu.commit.committed_per_cycle::0           33     97.06%     97.06% # Number of insts commited each cycle
system.cpu.commit.committed_per_cycle::1            0      0.00%     97.06% # Number of insts commited each cycle
system.cpu.commit.committed_per_cycle::2            1      2.94%    100.00% # Number of insts commited each cycle
system.cpu.commit.committed_per_cycle::3            0      0.00%    100.00% # Number of insts commited each cycle
system.cpu.commit.committed_per_cycle::4            0      0.00%    100.00% # Number of insts commited each cycle
system.cpu.commit.committed_per_cycle::5            0      0.00%    100.00% # Number of insts commited each cycle
system.cpu.commit.committed_per_cycle::6            0      0.00%    100.00% # Number of insts commited each cycle
system.cpu.commit.committed_per_cycle::7            0      0.00%    100.00% # Number of insts commited each cycle
system.cpu.commit.committed_per_cycle::8            0      0.00%    100.00% # Number of insts commited each cycle
system.cpu.commit.committed_per_cycle::overflows            0      0.00%    100.00% # Number of insts commited each cycle
system.cpu.commit.committed_per_cycle::min_value            0                       # Number of insts commited each cycle
system.cpu.commit.committed_per_cycle::max_value            2                       # Number of insts commited each cycle
system.cpu.commit.committed_per_cycle::total           34                       # Number of insts commited each cycle
system.cpu.commit.fp_insts                          0                       # Number of committed floating point instructions.
system.cpu.commit.function_calls                    0                       # Number of function calls committed.
system.cpu.commit.int_insts                         2                       # Number of committed integer instructions.
system.cpu.commit.loads                             0                       # Number of loads committed
system.cpu.commit.membars                           0                       # Number of memory barriers committed
system.cpu.commit.op_class_0::No_OpClass            0      0.00%      0.00% # Class of committed instruction
system.cpu.commit.op_class_0::IntAlu                2    100.00%    100.00% # Class of committed instruction
system.cpu.commit.op_class_0::IntMult               0      0.00%    100.00% # Class of committed instruction
system.cpu.commit.op_class_0::IntDiv                0      0.00%    100.00% # Class of committed instruction
system.cpu.commit.op_class_0::FloatAdd              0      0.00%    100.00% # Class of committed instruction
system.cpu.commit.op_class_0::FloatCmp              0      0.00%    100.00% # Class of committed instruction
system.cpu.commit.op_class_0::FloatCvt              0      0.00%    100.00% # Class of committed instruction
system.cpu.commit.op_class_0::FloatMult             0      0.00%    100.00% # Class of committed instruction
system.cpu.commit.op_class_0::FloatMultAcc            0      0.00%    100.00% # Class of committed instruction
system.cpu.commit.op_class_0::FloatDiv              0      0.00%    100.00% # Class of committed instruction
system.cpu.commit.op_class_0::FloatMisc             0      0.00%    100.00% # Class of committed instruction
system.cpu.commit.op_class_0::FloatSqrt             0      0.00%    100.00% # Class of committed instruction
system.cpu.commit.op_class_0::SimdAdd               0      0.00%    100.00% # Class of committed instruction
system.cpu.commit.op_class_0::SimdAddAcc            0      0.00%    100.00% # Class of committed instruction
system.cpu.commit.op_class_0::SimdAlu               0      0.00%    100.00% # Class of committed instruction
system.cpu.commit.op_class_0::SimdCmp               0      0.00%    100.00% # Class of committed instruction
system.cpu.commit.op_class_0::SimdCvt               0      0.00%    100.00% # Class of committed instruction
system.cpu.commit.op_class_0::SimdMisc              0      0.00%    100.00% # Class of committed instruction
system.cpu.commit.op_class_0::SimdMult              0      0.00%    100.00% # Class of committed instruction
system.cpu.commit.op_class_0::SimdMultAcc            0      0.00%    100.00% # Class of committed instruction
system.cpu.commit.op_class_0::SimdShift             0      0.00%    100.00% # Class of committed instruction
system.cpu.commit.op_class_0::SimdShiftAcc            0      0.00%    100.00% # Class of committed instruction
system.cpu.commit.op_class_0::SimdDiv               0      0.00%    100.00% # Class of committed instruction
system.cpu.commit.op_class_0::SimdSqrt              0      0.00%    100.00% # Class of committed instruction
system.cpu.commit.op_class_0::SimdFloatAdd            0      0.00%    100.00% # Class of committed instruction
system.cpu.commit.op_class_0::SimdFloatAlu            0      0.00%    100.00% # Class of committed instruction
system.cpu.commit.op_class_0::SimdFloatCmp            0      0.00%    100.00% # Class of committed instruction
system.cpu.commit.op_class_0::SimdFloatCvt            0      0.00%    100.00% # Class of committed instruction
system.cpu.commit.op_class_0::SimdFloatDiv            0      0.00%    100.00% # Class of committed instruction
system.cpu.commit.op_class_0::SimdFloatMisc            0      0.00%    100.00% # Class of committed instruction
system.cpu.commit.op_class_0::SimdFloatMult            0      0.00%    100.00% # Class of committed instruction
system.cpu.commit.op_class_0::SimdFloatMultAcc            0      0.00%    100.00% # Class of committed instruction
system.cpu.commit.op_class_0::SimdFloatSqrt            0      0.00%    100.00% # Class of committed instruction
system.cpu.commit.op_class_0::SimdReduceAdd            0      0.00%    100.00% # Class of committed instruction
system.cpu.commit.op_class_0::SimdReduceAlu            0      0.00%    100.00% # Class of committed instruction
system.cpu.commit.op_class_0::SimdReduceCmp            0      0.00%    100.00% # Class of committed instruction
system.cpu.commit.op_class_0::SimdFloatReduceAdd            0      0.00%    100.00% # Class of committed instruction
system.cpu.commit.op_class_0::SimdFloatReduceCmp            0      0.00%    100.00% # Class of committed instruction
system.cpu.commit.op_class_0::SimdAes               0      0.00%    100.00% # Class of committed instruction
system.cpu.commit.op_class_0::SimdAesMix            0      0.00%    100.00% # Class of committed instruction
system.cpu.commit.op_class_0::SimdSha1Hash            0      0.00%    100.00% # Class of committed instruction
system.cpu.commit.op_class_0::SimdSha1Hash2            0      0.00%    100.00% # Class of committed instruction
system.cpu.commit.op_class_0::SimdSha256Hash            0      0.00%    100.00% # Class of committed instruction
system.cpu.commit.op_class_0::SimdSha256Hash2            0      0.00%    100.00% # Class of committed instruction
system.cpu.commit.op_class_0::SimdShaSigma2            0      0.00%    100.00% # Class of committed instruction
system.cpu.commit.op_class_0::SimdShaSigma3            0      0.00%    100.00% # Class of committed instruction
system.cpu.commit.op_class_0::SimdPredAlu            0      0.00%    100.00% # Class of committed instruction
system.cpu.commit.op_class_0::MemRead               0      0.00%    100.00% # Class of committed instruction
system.cpu.commit.op_class_0::MemWrite              0      0.00%    100.00% # Class of committed instruction
system.cpu.commit.op_class_0::FloatMemRead            0      0.00%    100.00% # Class of committed instruction
system.cpu.commit.op_class_0::FloatMemWrite            0      0.00%    100.00% # Class of committed instruction
system.cpu.commit.op_class_0::IprAccess             0      0.00%    100.00% # Class of committed instruction
system.cpu.commit.op_class_0::InstPrefetch            0      0.00%    100.00% # Class of committed instruction
system.cpu.commit.op_class_0::total                 2                       # Class of committed instruction
system.cpu.commit.refs                              0                       # Number of memory references committed
system.cpu.commit.swp_count                         0                       # Number of s/w prefetches committed
system.cpu.commit.vec_insts                         0                       # Number of committed Vector instructions.
system.cpu.committedInsts                           1                       # Number of Instructions Simulated
system.cpu.committedOps                             2                       # Number of Ops (including micro ops) Simulated
system.cpu.cpi                             191.000000                       # CPI: Cycles Per Instruction
system.cpu.cpi_total                       191.000000                       # CPI: Total CPI of All Threads
system.cpu.decode.BlockedCycles                     1                       # Number of cycles decode is blocked
system.cpu.decode.DecodedInsts                     13                       # Number of instructions handled by decode
system.cpu.decode.IdleCycles                       32                       # Number of cycles decode is idle
system.cpu.decode.SquashCycles                      3                       # Number of cycles decode is squashing
system.cpu.dtb.rdAccesses                           2                       # TLB accesses on read requests
system.cpu.dtb.rdMisses                             1                       # TLB misses on read requests
system.cpu.dtb.wrAccesses                           0                       # TLB accesses on write requests
system.cpu.dtb.wrMisses                             0                       # TLB misses on write requests
system.cpu.fetch.Branches                           2                       # Number of branches that fetch encountered
system.cpu.fetch.CacheLines                         1                       # Number of cache lines fetched
system.cpu.fetch.Cycles                             2                       # Number of cycles fetch has run and was not squashing or blocked
system.cpu.fetch.Insts                              5                       # Number of instructions fetch has processed
system.cpu.fetch.PendingDrainCycles                 6                       # Number of cycles fetch has spent waiting on pipes to drain
system.cpu.fetch.PendingTrapStallCycles             6                       # Number of stall cycles due to pending traps
system.cpu.fetch.SquashCycles                       5                       # Number of cycles fetch has spent squashing
system.cpu.fetch.branchRate                  0.010471                       # Number of branch fetches per cycle
system.cpu.fetch.icacheStallCycles                 22                       # Number of cycles fetch is stalled on an Icache miss
system.cpu.fetch.predictedBranches                  1                       # Number of branches that fetch has predicted taken
system.cpu.fetch.rate                        0.026178                       # Number of inst fetches per cycle
system.cpu.fetch.rateDist::samples                 38                       # Number of instructions fetched each cycle (Total)
system.cpu.fetch.rateDist::mean              0.315789                       # Number of instructions fetched each cycle (Total)
system.cpu.fetch.rateDist::stdev             1.435181                       # Number of instructions fetched each cycle (Total)
system.cpu.fetch.rateDist::underflows               0      0.00%      0.00% # Number of instructions fetched each cycle (Total)
system.cpu.fetch.rateDist::0                       36     94.74%     94.74% # Number of instructions fetched each cycle (Total)
system.cpu.fetch.rateDist::1                        0      0.00%     94.74% # Number of instructions fetched each cycle (Total)
system.cpu.fetch.rateDist::2                        0      0.00%     94.74% # Number of instructions fetched each cycle (Total)
system.cpu.fetch.rateDist::3                        0      0.00%     94.74% # Number of instructions fetched each cycle (Total)
system.cpu.fetch.rateDist::4                        1      2.63%     97.37% # Number of instructions fetched each cycle (Total)
system.cpu.fetch.rateDist::5                        0      0.00%     97.37% # Number of instructions fetched each cycle (Total)
system.cpu.fetch.rateDist::6                        0      0.00%     97.37% # Number of instructions fetched each cycle (Total)
system.cpu.fetch.rateDist::7                        0      0.00%     97.37% # Number of instructions fetched each cycle (Total)
system.cpu.fetch.rateDist::8                        1      2.63%    100.00% # Number of instructions fetched each cycle (Total)
system.cpu.fetch.rateDist::overflows                0      0.00%    100.00% # Number of instructions fetched each cycle (Total)
system.cpu.fetch.rateDist::min_value                0                       # Number of instructions fetched each cycle (Total)
system.cpu.fetch.rateDist::max_value                8                       # Number of instructions fetched each cycle (Total)
system.cpu.fetch.rateDist::total                   38                       # Number of instructions fetched each cycle (Total)
system.cpu.fp_regfile_reads                        56                       # number of floating regfile reads
system.cpu.idleCycles                             153                       # Total number of cycles that the CPU has spent unscheduled due to idling
system.cpu.iew.branchMispredicts                    2                       # Number of branch mispredicts detected at execute
system.cpu.iew.exec_branches                        1                       # Number of branches executed
system.cpu.iew.exec_nop                             0                       # number of nop insts executed
system.cpu.iew.exec_rate                     0.057592                       # Inst execution rate
system.cpu.iew.exec_refs                            2                       # number of memory reference insts executed
system.cpu.iew.exec_stores                          0                       # Number of stores executed
system.cpu.iew.exec_swp                             0                       # number of swp insts executed
system.cpu.iew.iewBlockCycles                       1                       # Number of cycles IEW is blocking
system.cpu.iew.iewDispLoadInsts                     2                       # Number of dispatched load instructions
system.cpu.iew.iewDispNonSpecInsts                  0                       # Number of dispatched non-speculative instructions
system.cpu.iew.iewDispSquashedInsts                 0                       # Number of squashed instructions skipped by dispatch
system.cpu.iew.iewDispStoreInsts                    0                       # Number of dispatched store instructions
system.cpu.iew.iewDispatchedInsts                  13                       # Number of instructions dispatched to IQ
system.cpu.iew.iewExecLoadInsts                     2                       # Number of load instructions executed
system.cpu.iew.iewExecSquashedInsts                 0                       # Number of squashed instructions skipped in execute
system.cpu.iew.iewExecutedInsts                    11                       # Number of executed instructions
system.cpu.iew.iewIQFullEvents                      0                       # Number of times the IQ has become full, causing a stall
system.cpu.iew.iewIdleCycles                        0                       # Number of cycles IEW is idle
system.cpu.iew.iewLSQFullEvents                     0                       # Number of times the LSQ has become full, causing a stall
system.cpu.iew.iewSquashCycles                      3                       # Number of cycles IEW is squashing
system.cpu.iew.iewUnblockCycles                     0                       # Number of cycles IEW is unblocking
system.cpu.iew.lsq.thread0.blockedLoads             0                       # Number of blocked loads due to partial load-store forwarding
system.cpu.iew.lsq.thread0.cacheBlocked             0                       # Number of times an access to memory failed due to the cache being blocked
system.cpu.iew.lsq.thread0.forwLoads                0                       # Number of loads that had data forwarded from stores
system.cpu.iew.lsq.thread0.ignoredResponses            0                       # Number of memory responses ignored because the instruction is squashed
system.cpu.iew.lsq.thread0.invAddrLoads             0                       # Number of loads ignored due to an invalid address
system.cpu.iew.lsq.thread0.invAddrSwpfs             0                       # Number of software prefetches ignored due to an invalid address
system.cpu.iew.lsq.thread0.memOrderViolation            0                       # Number of memory ordering violations
system.cpu.iew.lsq.thread0.rescheduledLoads            0                       # Number of loads that were rescheduled
system.cpu.iew.lsq.thread0.squashedLoads            2                       # Number of loads squashed
system.cpu.iew.lsq.thread0.squashedStores            0                       # Number of stores squashed
system.cpu.iew.memOrderViolationEvents              0                       # Number of memory order violations
system.cpu.iew.predictedNotTakenIncorrect            2                       # Number of branches that were predicted not taken incorrectly
system.cpu.iew.predictedTakenIncorrect              0                       # Number of branches that were predicted taken incorrectly
system.cpu.iew.wb_consumers                        10                       # num instructions consuming a value
system.cpu.iew.wb_count                             8                       # cumulative count of insts written-back
system.cpu.iew.wb_fanout                     0.500000                       # average fanout of values written-back
system.cpu.iew.wb_producers                         5                       # num instructions producing a value
system.cpu.iew.wb_rate                       0.041885                       # insts written-back per cycle
system.cpu.iew.wb_sent                              9                       # cumulative count of insts sent to commit
system.cpu.int_regfile_reads                       50                       # number of integer regfile reads
system.cpu.int_regfile_writes                       7                       # number of integer regfile writes
system.cpu.ipc                               0.005236                       # IPC: Instructions Per Cycle
system.cpu.ipc_total                         0.005236                       # IPC: Total IPC of All Threads
system.cpu.iq.FU_type_0::No_OpClass                 1      9.09%      9.09% # Type of FU issued
system.cpu.iq.FU_type_0::IntAlu                     8     72.73%     81.82% # Type of FU issued
system.cpu.iq.FU_type_0::IntMult                    0      0.00%     81.82% # Type of FU issued
system.cpu.iq.FU_type_0::IntDiv                     0      0.00%     81.82% # Type of FU issued
system.cpu.iq.FU_type_0::FloatAdd                   0      0.00%     81.82% # Type of FU issued
system.cpu.iq.FU_type_0::FloatCmp                   0      0.00%     81.82% # Type of FU issued
system.cpu.iq.FU_type_0::FloatCvt                   0      0.00%     81.82% # Type of FU issued
system.cpu.iq.FU_type_0::FloatMult                  0      0.00%     81.82% # Type of FU issued
system.cpu.iq.FU_type_0::FloatMultAcc               0      0.00%     81.82% # Type of FU issued
system.cpu.iq.FU_type_0::FloatDiv                   0      0.00%     81.82% # Type of FU issued
system.cpu.iq.FU_type_0::FloatMisc                  0      0.00%     81.82% # Type of FU issued
system.cpu.iq.FU_type_0::FloatSqrt                  0      0.00%     81.82% # Type of FU issued
system.cpu.iq.FU_type_0::SimdAdd                    0      0.00%     81.82% # Type of FU issued
system.cpu.iq.FU_type_0::SimdAddAcc                 0      0.00%     81.82% # Type of FU issued
system.cpu.iq.FU_type_0::SimdAlu                    0      0.00%     81.82% # Type of FU issued
system.cpu.iq.FU_type_0::SimdCmp                    0      0.00%     81.82% # Type of FU issued
system.cpu.iq.FU_type_0::SimdCvt                    0      0.00%     81.82% # Type of FU issued
system.cpu.iq.FU_type_0::SimdMisc                   0      0.00%     81.82% # Type of FU issued
system.cpu.iq.FU_type_0::SimdMult                   0      0.00%     81.82% # Type of FU issued
system.cpu.iq.FU_type_0::SimdMultAcc                0      0.00%     81.82% # Type of FU issued
system.cpu.iq.FU_type_0::SimdShift                  0      0.00%     81.82% # Type of FU issued
system.cpu.iq.FU_type_0::SimdShiftAcc               0      0.00%     81.82% # Type of FU issued
system.cpu.iq.FU_type_0::SimdDiv                    0      0.00%     81.82% # Type of FU issued
system.cpu.iq.FU_type_0::SimdSqrt                   0      0.00%     81.82% # Type of FU issued
system.cpu.iq.FU_type_0::SimdFloatAdd               0      0.00%     81.82% # Type of FU issued
system.cpu.iq.FU_type_0::SimdFloatAlu               0      0.00%     81.82% # Type of FU issued
system.cpu.iq.FU_type_0::SimdFloatCmp               0      0.00%     81.82% # Type of FU issued
system.cpu.iq.FU_type_0::SimdFloatCvt               0      0.00%     81.82% # Type of FU issued
system.cpu.iq.FU_type_0::SimdFloatDiv               0      0.00%     81.82% # Type of FU issued
system.cpu.iq.FU_type_0::SimdFloatMisc              0      0.00%     81.82% # Type of FU issued
system.cpu.iq.FU_type_0::SimdFloatMult              0      0.00%     81.82% # Type of FU issued
system.cpu.iq.FU_type_0::SimdFloatMultAcc            0      0.00%     81.82% # Type of FU issued
system.cpu.iq.FU_type_0::SimdFloatSqrt              0      0.00%     81.82% # Type of FU issued
system.cpu.iq.FU_type_0::SimdReduceAdd              0      0.00%     81.82% # Type of FU issued
system.cpu.iq.FU_type_0::SimdReduceAlu              0      0.00%     81.82% # Type of FU issued
system.cpu.iq.FU_type_0::SimdReduceCmp              0      0.00%     81.82% # Type of FU issued
system.cpu.iq.FU_type_0::SimdFloatReduceAdd            0      0.00%     81.82% # Type of FU issued
system.cpu.iq.FU_type_0::SimdFloatReduceCmp            0      0.00%     81.82% # Type of FU issued
system.cpu.iq.FU_type_0::SimdAes                    0      0.00%     81.82% # Type of FU issued
system.cpu.iq.FU_type_0::SimdAesMix                 0      0.00%     81.82% # Type of FU issued
system.cpu.iq.FU_type_0::SimdSha1Hash               0      0.00%     81.82% # Type of FU issued
system.cpu.iq.FU_type_0::SimdSha1Hash2              0      0.00%     81.82% # Type of FU issued
system.cpu.iq.FU_type_0::SimdSha256Hash             0      0.00%     81.82% # Type of FU issued
system.cpu.iq.FU_type_0::SimdSha256Hash2            0      0.00%     81.82% # Type of FU issued
system.cpu.iq.FU_type_0::SimdShaSigma2              0      0.00%     81.82% # Type of FU issued
system.cpu.iq.FU_type_0::SimdShaSigma3              0      0.00%     81.82% # Type of FU issued
system.cpu.iq.FU_type_0::SimdPredAlu                0      0.00%     81.82% # Type of FU issued
system.cpu.iq.FU_type_0::MemRead                    2     18.18%    100.00% # Type of FU issued
system.cpu.iq.FU_type_0::MemWrite                   0      0.00%    100.00% # Type of FU issued
system.cpu.iq.FU_type_0::FloatMemRead               0      0.00%    100.00% # Type of FU issued
system.cpu.iq.FU_type_0::FloatMemWrite              0      0.00%    100.00% # Type of FU issued
system.cpu.iq.FU_type_0::IprAccess                  0      0.00%    100.00% # Type of FU issued
system.cpu.iq.FU_type_0::InstPrefetch               0      0.00%    100.00% # Type of FU issued
system.cpu.iq.FU_type_0::total                     11                       # Type of FU issued
system.cpu.iq.fp_alu_accesses                       0                       # Number of floating point alu accesses
system.cpu.iq.fp_inst_queue_reads                   0                       # Number of floating instruction queue reads
system.cpu.iq.fp_inst_queue_wakeup_accesses            0                       # Number of floating instruction queue wakeup accesses
system.cpu.iq.fp_inst_queue_writes                  0                       # Number of floating instruction queue writes
system.cpu.iq.fu_busy_cnt                           0                       # FU busy when requested
system.cpu.iq.fu_busy_rate                          0                       # FU busy rate (busy events/executed inst)
system.cpu.iq.fu_full::No_OpClass                   0                       # attempts to use FU when none available
system.cpu.iq.fu_full::IntAlu                       0                       # attempts to use FU when none available
system.cpu.iq.fu_full::IntMult                      0                       # attempts to use FU when none available
system.cpu.iq.fu_full::IntDiv                       0                       # attempts to use FU when none available
system.cpu.iq.fu_full::FloatAdd                     0                       # attempts to use FU when none available
system.cpu.iq.fu_full::FloatCmp                     0                       # attempts to use FU when none available
system.cpu.iq.fu_full::FloatCvt                     0                       # attempts to use FU when none available
system.cpu.iq.fu_full::FloatMult                    0                       # attempts to use FU when none available
system.cpu.iq.fu_full::FloatMultAcc                 0                       # attempts to use FU when none available
system.cpu.iq.fu_full::FloatDiv                     0                       # attempts to use FU when none available
system.cpu.iq.fu_full::FloatMisc                    0                       # attempts to use FU when none available
system.cpu.iq.fu_full::FloatSqrt                    0                       # attempts to use FU when none available
system.cpu.iq.fu_full::SimdAdd                      0                       # attempts to use FU when none available
system.cpu.iq.fu_full::SimdAddAcc                   0                       # attempts to use FU when none available
system.cpu.iq.fu_full::SimdAlu                      0                       # attempts to use FU when none available
system.cpu.iq.fu_full::SimdCmp                      0                       # attempts to use FU when none available
system.cpu.iq.fu_full::SimdCvt                      0                       # attempts to use FU when none available
system.cpu.iq.fu_full::SimdMisc                     0                       # attempts to use FU when none available
system.cpu.iq.fu_full::SimdMult                     0                       # attempts to use FU when none available
system.cpu.iq.fu_full::SimdMultAcc                  0                       # attempts to use FU when none available
system.cpu.iq.fu_full::SimdShift                    0                       # attempts to use FU when none available
system.cpu.iq.fu_full::SimdShiftAcc                 0                       # attempts to use FU when none available
system.cpu.iq.fu_full::SimdDiv                      0                       # attempts to use FU when none available
system.cpu.iq.fu_full::SimdSqrt                     0                       # attempts to use FU when none available
system.cpu.iq.fu_full::SimdFloatAdd                 0                       # attempts to use FU when none available
system.cpu.iq.fu_full::SimdFloatAlu                 0                       # attempts to use FU when none available
system.cpu.iq.fu_full::SimdFloatCmp                 0                       # attempts to use FU when none available
system.cpu.iq.fu_full::SimdFloatCvt                 0                       # attempts to use FU when none available
system.cpu.iq.fu_full::SimdFloatDiv                 0                       # attempts to use FU when none available
system.cpu.iq.fu_full::SimdFloatMisc                0                       # attempts to use FU when none available
system.cpu.iq.fu_full::SimdFloatMult                0                       # attempts to use FU when none available
system.cpu.iq.fu_full::SimdFloatMultAcc             0                       # attempts to use FU when none available
system.cpu.iq.fu_full::SimdFloatSqrt                0                       # attempts to use FU when none available
system.cpu.iq.fu_full::SimdReduceAdd                0                       # attempts to use FU when none available
system.cpu.iq.fu_full::SimdReduceAlu                0                       # attempts to use FU when none available
system.cpu.iq.fu_full::SimdReduceCmp                0                       # attempts to use FU when none available
system.cpu.iq.fu_full::SimdFloatReduceAdd            0                       # attempts to use FU when none available
system.cpu.iq.fu_full::SimdFloatReduceCmp            0                       # attempts to use FU when none available
system.cpu.iq.fu_full::SimdAes                      0                       # attempts to use FU when none available
system.cpu.iq.fu_full::SimdAesMix                   0                       # attempts to use FU when none available
system.cpu.iq.fu_full::SimdSha1Hash                 0                       # attempts to use FU when none available
system.cpu.iq.fu_full::SimdSha1Hash2                0                       # attempts to use FU when none available
system.cpu.iq.fu_full::SimdSha256Hash               0                       # attempts to use FU when none available
system.cpu.iq.fu_full::SimdSha256Hash2              0                       # attempts to use FU when none available
system.cpu.iq.fu_full::SimdShaSigma2                0                       # attempts to use FU when none available
system.cpu.iq.fu_full::SimdShaSigma3                0                       # attempts to use FU when none available
system.cpu.iq.fu_full::SimdPredAlu                  0                       # attempts to use FU when none available
system.cpu.iq.fu_full::MemRead                      0                       # attempts to use FU when none available
system.cpu.iq.fu_full::MemWrite                     0                       # attempts to use FU when none available
system.cpu.iq.fu_full::FloatMemRead                 0                       # attempts to use FU when none available
system.cpu.iq.fu_full::FloatMemWrite                0                       # attempts to use FU when none available
system.cpu.iq.fu_full::IprAccess                    0                       # attempts to use FU when none available
system.cpu.iq.fu_full::InstPrefetch                 0                       # attempts to use FU when none available
system.cpu.iq.int_alu_accesses                     10                       # Number of integer alu accesses
system.cpu.iq.int_inst_queue_reads                 60                       # Number of integer instruction queue reads
system.cpu.iq.int_inst_queue_wakeup_accesses            8                       # Number of integer instruction queue wakeup accesses
system.cpu.iq.int_inst_queue_writes                24                       # Number of integer instruction queue writes
system.cpu.iq.iqInstsAdded                         13                       # Number of instructions added to the IQ (excludes non-spec)
system.cpu.iq.iqInstsIssued                        11                       # Number of instructions issued
system.cpu.iq.iqSquashedInstsExamined              11                       # Number of squashed instructions iterated over during squash; mainly for profiling
system.cpu.iq.iqSquashedOperandsExamined           11                       # Number of squashed operands that are examined and possibly removed from graph
system.cpu.iq.issued_per_cycle::samples            38                       # Number of insts issued each cycle
system.cpu.iq.issued_per_cycle::mean         0.289474                       # Number of insts issued each cycle
system.cpu.iq.issued_per_cycle::stdev        1.063088                       # Number of insts issued each cycle
system.cpu.iq.issued_per_cycle::underflows            0      0.00%      0.00% # Number of insts issued each cycle
system.cpu.iq.issued_per_cycle::0                  35     92.11%     92.11% # Number of insts issued each cycle
system.cpu.iq.issued_per_cycle::1                   0      0.00%     92.11% # Number of insts issued each cycle
system.cpu.iq.issued_per_cycle::2                   1      2.63%     94.74% # Number of insts issued each cycle
system.cpu.iq.issued_per_cycle::3                   0      0.00%     94.74% # Number of insts issued each cycle
system.cpu.iq.issued_per_cycle::4                   1      2.63%     97.37% # Number of insts issued each cycle
system.cpu.iq.issued_per_cycle::5                   1      2.63%    100.00% # Number of insts issued each cycle
system.cpu.iq.issued_per_cycle::6                   0      0.00%    100.00% # Number of insts issued each cycle
system.cpu.iq.issued_per_cycle::7                   0      0.00%    100.00% # Number of insts issued each cycle
system.cpu.iq.issued_per_cycle::8                   0      0.00%    100.00% # Number of insts issued each cycle
system.cpu.iq.issued_per_cycle::overflows            0      0.00%    100.00% # Number of insts issued each cycle
system.cpu.iq.issued_per_cycle::min_value            0                       # Number of insts issued each cycle
system.cpu.iq.issued_per_cycle::max_value            5                       # Number of insts issued each cycle
system.cpu.iq.issued_per_cycle::total              38                       # Number of insts issued each cycle
system.cpu.iq.rate                           0.057592                       # Inst issue rate
system.cpu.iq.vec_alu_accesses                      0                       # Number of vector alu accesses
system.cpu.iq.vec_inst_queue_reads                  0                       # Number of vector instruction queue reads
system.cpu.iq.vec_inst_queue_wakeup_accesses            0                       # Number of vector instruction queue wakeup accesses
system.cpu.iq.vec_inst_queue_writes                 0                       # Number of vector instruction queue writes
system.cpu.itb.rdAccesses                           0                       # TLB accesses on read requests
system.cpu.itb.rdMisses                             0                       # TLB misses on read requests
system.cpu.itb.wrAccesses                           2                       # TLB accesses on write requests
system.cpu.itb.wrMisses                             1                       # TLB misses on write requests
system.cpu.memDep0.conflictingLoads                 0                       # Number of conflicting loads.
system.cpu.memDep0.conflictingStores                0                       # Number of conflicting stores.
system.cpu.memDep0.insertedLoads                    2                       # Number of loads inserted to the mem dependence unit.
system.cpu.memDep0.insertedStores                   0                       # Number of stores inserted to the mem dependence unit.
system.cpu.misc_regfile_reads                       5                       # number of misc regfile reads
system.cpu.numCycles                              191                       # number of cpu cycles simulated
system.cpu.numWorkItemsCompleted                    0                       # number of work items this cpu completed
system.cpu.numWorkItemsStarted                      0                       # number of work items this cpu started
system.cpu.rename.BlockCycles                       1                       # Number of cycles rename is blocking
system.cpu.rename.CommittedMaps                     4                       # Number of HB maps that are committed
system.cpu.rename.IdleCycles                       32                       # Number of cycles rename is idle
system.cpu.rename.RenameLookups                    27                       # Number of register rename lookups that rename has made
system.cpu.rename.RenamedInsts                     13                       # Number of instructions processed by rename
system.cpu.rename.RenamedOperands                  14                       # Number of destination operands rename has renamed
system.cpu.rename.RunCycles                         0                       # Number of cycles rename is running
system.cpu.rename.SquashCycles                      3                       # Number of cycles rename is squashing
system.cpu.rename.UndoneMaps                       10                       # Number of HB maps that are undone due to squashing
system.cpu.rename.int_rename_lookups               16                       # Number of integer rename lookups
system.cpu.rename.serializeStallCycles              0                       # count of cycles rename stalled for serializing inst
system.cpu.rename.serializingInsts                  0                       # count of serializing insts renamed
system.cpu.rename.skidInsts                         0                       # count of insts added to the skid buffer
system.cpu.rename.tempSerializingInsts              0                       # count of temporary serializing insts renamed
system.cpu.rob.rob_reads                           46                       # The number of ROB reads
system.cpu.rob.rob_writes                          30                       # The number of ROB writes
system.cpu.timesIdled                               2                       # Number of times that the entire CPU went into an idle state and unscheduled itself
system.cpu.workload.numSyscalls                     0                       # Number of system calls
system.membus.snoop_filter.hit_multi_requests            0                       # Number of requests hitting in the snoop filter with multiple (>1) holders of the requested data.
system.membus.snoop_filter.hit_multi_snoops            0                       # Number of snoops hitting in the snoop filter with multiple (>1) holders of the requested data.
system.membus.snoop_filter.hit_single_requests        60611                       # Number of requests hitting in the snoop filter with a single holder of the requested data.
system.membus.snoop_filter.hit_single_snoops            0                       # Number of snoops hitting in the snoop filter with a single holder of the requested data.
system.membus.snoop_filter.tot_requests        129450                       # Total number of requests made to the snoop filter.
system.membus.snoop_filter.tot_snoops               0                       # Total number of snoops made to the snoop filter.
system.switch_cpus.Branches                   2602495                       # Number of branches fetched
system.switch_cpus.committedInsts            10000000                       # Number of instructions committed
system.switch_cpus.committedOps              20409922                       # Number of ops (including micro ops) committed
system.switch_cpus.dtb.rdAccesses             4520345                       # TLB accesses on read requests
system.switch_cpus.dtb.rdMisses                  1691                       # TLB misses on read requests
system.switch_cpus.dtb.wrAccesses              137206                       # TLB accesses on write requests
system.switch_cpus.dtb.wrMisses                     8                       # TLB misses on write requests
system.switch_cpus.idle_fraction             0.000650                       # Percentage of idle cycles
system.switch_cpus.itb.rdAccesses                   0                       # TLB accesses on read requests
system.switch_cpus.itb.rdMisses                     0                       # TLB misses on read requests
system.switch_cpus.itb.wrAccesses            14383384                       # TLB accesses on write requests
system.switch_cpus.itb.wrMisses                     3                       # TLB misses on write requests
system.switch_cpus.not_idle_fraction         0.999350                       # Percentage of non-idle cycles
system.switch_cpus.numCycles                 24793306                       # number of cpu cycles simulated
system.switch_cpus.numWorkItemsCompleted            0                       # number of work items this cpu completed
system.switch_cpus.numWorkItemsStarted              0                       # number of work items this cpu started
system.switch_cpus.num_busy_cycles       24777196.474345                       # Number of busy cycles
system.switch_cpus.num_cc_register_reads     13012621                       # number of times the CC registers were read
system.switch_cpus.num_cc_register_writes      6027068                       # number of times the CC registers were written
system.switch_cpus.num_conditional_control_insts      2602447                       # number of instructions that are conditional controls
system.switch_cpus.num_fp_alu_accesses              0                       # Number of float alu accesses
system.switch_cpus.num_fp_insts                     0                       # number of float instructions
system.switch_cpus.num_fp_register_reads            0                       # number of times the floating registers were read
system.switch_cpus.num_fp_register_writes            0                       # number of times the floating registers were written
system.switch_cpus.num_func_calls                  20                       # number of times a function call or return occured
system.switch_cpus.num_idle_cycles       16109.525655                       # Number of idle cycles
system.switch_cpus.num_int_alu_accesses      20409904                       # Number of integer alu accesses
system.switch_cpus.num_int_insts             20409904                       # number of integer instructions
system.switch_cpus.num_int_register_reads     45888448                       # number of times the integer registers were read
system.switch_cpus.num_int_register_writes     17670203                       # number of times the integer registers were written
system.switch_cpus.num_load_insts             4520345                       # Number of load instructions
system.switch_cpus.num_mem_refs               4657551                       # number of memory refs
system.switch_cpus.num_store_insts             137206                       # Number of store instructions
system.switch_cpus.num_vec_alu_accesses             0                       # Number of vector alu accesses
system.switch_cpus.num_vec_insts                    0                       # number of vector instructions
system.switch_cpus.num_vec_register_reads            0                       # number of times the vector registers were read
system.switch_cpus.num_vec_register_writes            0                       # number of times the vector registers were written
system.switch_cpus.op_class::No_OpClass            18      0.00%      0.00% # Class of executed instruction
system.switch_cpus.op_class::IntAlu          15752353     77.18%     77.18% # Class of executed instruction
system.switch_cpus.op_class::IntMult                0      0.00%     77.18% # Class of executed instruction
system.switch_cpus.op_class::IntDiv                 0      0.00%     77.18% # Class of executed instruction
system.switch_cpus.op_class::FloatAdd               0      0.00%     77.18% # Class of executed instruction
system.switch_cpus.op_class::FloatCmp               0      0.00%     77.18% # Class of executed instruction
system.switch_cpus.op_class::FloatCvt               0      0.00%     77.18% # Class of executed instruction
system.switch_cpus.op_class::FloatMult              0      0.00%     77.18% # Class of executed instruction
system.switch_cpus.op_class::FloatMultAcc            0      0.00%     77.18% # Class of executed instruction
system.switch_cpus.op_class::FloatDiv               0      0.00%     77.18% # Class of executed instruction
system.switch_cpus.op_class::FloatMisc              0      0.00%     77.18% # Class of executed instruction
system.switch_cpus.op_class::FloatSqrt              0      0.00%     77.18% # Class of executed instruction
system.switch_cpus.op_class::SimdAdd                0      0.00%     77.18% # Class of executed instruction
system.switch_cpus.op_class::SimdAddAcc             0      0.00%     77.18% # Class of executed instruction
system.switch_cpus.op_class::SimdAlu                0      0.00%     77.18% # Class of executed instruction
system.switch_cpus.op_class::SimdCmp                0      0.00%     77.18% # Class of executed instruction
system.switch_cpus.op_class::SimdCvt                0      0.00%     77.18% # Class of executed instruction
system.switch_cpus.op_class::SimdMisc               0      0.00%     77.18% # Class of executed instruction
system.switch_cpus.op_class::SimdMult               0      0.00%     77.18% # Class of executed instruction
system.switch_cpus.op_class::SimdMultAcc            0      0.00%     77.18% # Class of executed instruction
system.switch_cpus.op_class::SimdShift              0      0.00%     77.18% # Class of executed instruction
system.switch_cpus.op_class::SimdShiftAcc            0      0.00%     77.18% # Class of executed instruction
system.switch_cpus.op_class::SimdDiv                0      0.00%     77.18% # Class of executed instruction
system.switch_cpus.op_class::SimdSqrt               0      0.00%     77.18% # Class of executed instruction
system.switch_cpus.op_class::SimdFloatAdd            0      0.00%     77.18% # Class of executed instruction
system.switch_cpus.op_class::SimdFloatAlu            0      0.00%     77.18% # Class of executed instruction
system.switch_cpus.op_class::SimdFloatCmp            0      0.00%     77.18% # Class of executed instruction
system.switch_cpus.op_class::SimdFloatCvt            0      0.00%     77.18% # Class of executed instruction
system.switch_cpus.op_class::SimdFloatDiv            0      0.00%     77.18% # Class of executed instruction
system.switch_cpus.op_class::SimdFloatMisc            0      0.00%     77.18% # Class of executed instruction
system.switch_cpus.op_class::SimdFloatMult            0      0.00%     77.18% # Class of executed instruction
system.switch_cpus.op_class::SimdFloatMultAcc            0      0.00%     77.18% # Class of executed instruction
system.switch_cpus.op_class::SimdFloatSqrt            0      0.00%     77.18% # Class of executed instruction
system.switch_cpus.op_class::SimdReduceAdd            0      0.00%     77.18% # Class of executed instruction
system.switch_cpus.op_class::SimdReduceAlu            0      0.00%     77.18% # Class of executed instruction
system.switch_cpus.op_class::SimdReduceCmp            0      0.00%     77.18% # Class of executed instruction
system.switch_cpus.op_class::SimdFloatReduceAdd            0      0.00%     77.18% # Class of executed instruction
system.switch_cpus.op_class::SimdFloatReduceCmp            0      0.00%     77.18% # Class of executed instruction
system.switch_cpus.op_class::SimdAes                0      0.00%     77.18% # Class of executed instruction
system.switch_cpus.op_class::SimdAesMix             0      0.00%     77.18% # Class of executed instruction
system.switch_cpus.op_class::SimdSha1Hash            0      0.00%     77.18% # Class of executed instruction
system.switch_cpus.op_class::SimdSha1Hash2            0      0.00%     77.18% # Class of executed instruction
system.switch_cpus.op_class::SimdSha256Hash            0      0.00%     77.18% # Class of executed instruction
system.switch_cpus.op_class::SimdSha256Hash2            0      0.00%     77.18% # Class of executed instruction
system.switch_cpus.op_class::SimdShaSigma2            0      0.00%     77.18% # Class of executed instruction
system.switch_cpus.op_class::SimdShaSigma3            0      0.00%     77.18% # Class of executed instruction
system.switch_cpus.op_class::SimdPredAlu            0      0.00%     77.18% # Class of executed instruction
system.switch_cpus.op_class::MemRead          4520345     22.15%     99.33% # Class of executed instruction
system.switch_cpus.op_class::MemWrite          137206      0.67%    100.00% # Class of executed instruction
system.switch_cpus.op_class::FloatMemRead            0      0.00%    100.00% # Class of executed instruction
system.switch_cpus.op_class::FloatMemWrite            0      0.00%    100.00% # Class of executed instruction
system.switch_cpus.op_class::IprAccess              0      0.00%    100.00% # Class of executed instruction
system.switch_cpus.op_class::InstPrefetch            0      0.00%    100.00% # Class of executed instruction
system.switch_cpus.op_class::total           20409922                       # Class of executed instruction
system.tol2bus.snoop_filter.hit_multi_requests            0                       # Number of requests hitting in the snoop filter with multiple (>1) holders of the requested data.
system.tol2bus.snoop_filter.hit_multi_snoops            0                       # Number of snoops hitting in the snoop filter with multiple (>1) holders of the requested data.
system.tol2bus.snoop_filter.hit_single_requests       101823                       # Number of requests hitting in the snoop filter with a single holder of the requested data.
system.tol2bus.snoop_filter.hit_single_snoops         2414                       # Number of snoops hitting in the snoop filter with a single holder of the requested data.
system.tol2bus.snoop_filter.tot_requests       204705                       # Total number of requests made to the snoop filter.
system.tol2bus.snoop_filter.tot_snoops           2414                       # Total number of snoops made to the snoop filter.
system.membus.pwrStateResidencyTicks::UNDEFINED 136226791034500                       # Cumulative time (in ticks) in various power states
system.membus.trans_dist::ReadResp              68827                       # Transaction distribution
system.membus.trans_dist::WritebackDirty           49                       # Transaction distribution
system.membus.trans_dist::CleanEvict            60562                       # Transaction distribution
system.membus.trans_dist::ReadExReq                12                       # Transaction distribution
system.membus.trans_dist::ReadExResp               12                       # Transaction distribution
system.membus.trans_dist::ReadSharedReq         68827                       # Transaction distribution
system.membus.pkt_count_system.l2.mem_side::system.mem_ctrls.port       198289                       # Packet count per connected master and slave (bytes)
system.membus.pkt_count_system.l2.mem_side::total       198289                       # Packet count per connected master and slave (bytes)
system.membus.pkt_count::total                 198289                       # Packet count per connected master and slave (bytes)
system.membus.pkt_size_system.l2.mem_side::system.mem_ctrls.port      4408832                       # Cumulative packet size per connected master and slave (bytes)
system.membus.pkt_size_system.l2.mem_side::total      4408832                       # Cumulative packet size per connected master and slave (bytes)
system.membus.pkt_size::total                 4408832                       # Cumulative packet size per connected master and slave (bytes)
system.membus.snoops                                0                       # Total snoops (count)
system.membus.snoopTraffic                          0                       # Total snoop traffic (bytes)
system.membus.snoop_fanout::samples             68839                       # Request fanout histogram
system.membus.snoop_fanout::mean                    0                       # Request fanout histogram
system.membus.snoop_fanout::stdev                   0                       # Request fanout histogram
system.membus.snoop_fanout::underflows              0      0.00%      0.00% # Request fanout histogram
system.membus.snoop_fanout::0                   68839    100.00%    100.00% # Request fanout histogram
system.membus.snoop_fanout::1                       0      0.00%    100.00% # Request fanout histogram
system.membus.snoop_fanout::overflows               0      0.00%    100.00% # Request fanout histogram
system.membus.snoop_fanout::min_value               0                       # Request fanout histogram
system.membus.snoop_fanout::max_value               0                       # Request fanout histogram
system.membus.snoop_fanout::total               68839                       # Request fanout histogram
system.membus.reqLayer2.occupancy                3000                       # Layer occupancy (ticks)
system.membus.reqLayer2.utilization               0.0                       # Layer utilization (%)
system.membus.respLayer1.occupancy              10500                       # Layer occupancy (ticks)
system.membus.respLayer1.utilization              0.0                       # Layer utilization (%)
system.switch_cpus.numPwrStateTransitions            1                       # Number of power state transitions
system.switch_cpus.pwrStateResidencyTicks::UNDEFINED 136214386321250                       # Cumulative time (in ticks) in various power states
system.switch_cpus.pwrStateResidencyTicks::OFF  12404713250                       # Cumulative time (in ticks) in various power states
system.switch_cpus.dtb.walker.pwrStateResidencyTicks::UNDEFINED 136226791034500                       # Cumulative time (in ticks) in various power states
system.switch_cpus.itb.walker.pwrStateResidencyTicks::UNDEFINED 136226791034500                       # Cumulative time (in ticks) in various power states
system.tol2bus.pwrStateResidencyTicks::UNDEFINED 136226791034500                       # Cumulative time (in ticks) in various power states
system.tol2bus.trans_dist::ReadResp            102868                       # Transaction distribution
system.tol2bus.trans_dist::WritebackDirty           57                       # Transaction distribution
system.tol2bus.trans_dist::CleanEvict          101766                       # Transaction distribution
system.tol2bus.trans_dist::ReadExReq               14                       # Transaction distribution
system.tol2bus.trans_dist::ReadExResp              14                       # Transaction distribution
system.tol2bus.trans_dist::ReadCleanReq            35                       # Transaction distribution
system.tol2bus.trans_dist::ReadSharedReq       102833                       # Transaction distribution
system.tol2bus.pkt_count_system.cpu.icache.mem_side::system.l2.cpu_side           70                       # Packet count per connected master and slave (bytes)
system.tol2bus.pkt_count_system.cpu.dcache.mem_side::system.l2.cpu_side       307517                       # Packet count per connected master and slave (bytes)
system.tol2bus.pkt_count::total                307587                       # Packet count per connected master and slave (bytes)
system.tol2bus.pkt_size_system.cpu.icache.mem_side::system.l2.cpu_side         2240                       # Cumulative packet size per connected master and slave (bytes)
system.tol2bus.pkt_size_system.cpu.dcache.mem_side::system.l2.cpu_side      6585856                       # Cumulative packet size per connected master and slave (bytes)
system.tol2bus.pkt_size::total                6588096                       # Cumulative packet size per connected master and slave (bytes)
system.tol2bus.snoops                           60647                       # Total snoops (count)
system.tol2bus.snoopTraffic                      3136                       # Total snoop traffic (bytes)
system.tol2bus.snoop_fanout::samples           163529                       # Request fanout histogram
system.tol2bus.snoop_fanout::mean            0.014762                       # Request fanout histogram
system.tol2bus.snoop_fanout::stdev           0.120599                       # Request fanout histogram
system.tol2bus.snoop_fanout::underflows             0      0.00%      0.00% # Request fanout histogram
system.tol2bus.snoop_fanout::0                 161115     98.52%     98.52% # Request fanout histogram
system.tol2bus.snoop_fanout::1                   2414      1.48%    100.00% # Request fanout histogram
system.tol2bus.snoop_fanout::2                      0      0.00%    100.00% # Request fanout histogram
system.tol2bus.snoop_fanout::3                      0      0.00%    100.00% # Request fanout histogram
system.tol2bus.snoop_fanout::4                      0      0.00%    100.00% # Request fanout histogram
system.tol2bus.snoop_fanout::overflows              0      0.00%    100.00% # Request fanout histogram
system.tol2bus.snoop_fanout::min_value              0                       # Request fanout histogram
system.tol2bus.snoop_fanout::max_value              1                       # Request fanout histogram
system.tol2bus.snoop_fanout::total             163529                       # Request fanout histogram
system.tol2bus.reqLayer0.occupancy               1000                       # Layer occupancy (ticks)
system.tol2bus.reqLayer0.utilization              0.0                       # Layer utilization (%)
system.tol2bus.respLayer1.occupancy              1500                       # Layer occupancy (ticks)
system.tol2bus.respLayer1.utilization             0.0                       # Layer utilization (%)
system.tol2bus.respLayer0.occupancy              1500                       # Layer occupancy (ticks)
system.tol2bus.respLayer0.utilization             0.0                       # Layer utilization (%)
system.voltage_domain.voltage                       1                       # Voltage in Volts
system.clk_domain.clock                          1000                       # Clock period in ticks
system.l2.pwrStateResidencyTicks::UNDEFINED 136226791034500                       # Cumulative time (in ticks) in various power states
system.l2.demand_hits::.switch_cpus.data        34043                       # number of demand (read+write) hits
system.l2.demand_hits::total                    34043                       # number of demand (read+write) hits
system.l2.overall_hits::.switch_cpus.data        34043                       # number of overall hits
system.l2.overall_hits::total                   34043                       # number of overall hits
system.l2.demand_misses::.cpu.inst                  1                       # number of demand (read+write) misses
system.l2.demand_misses::.cpu.data                  1                       # number of demand (read+write) misses
system.l2.demand_misses::.switch_cpus.inst           34                       # number of demand (read+write) misses
system.l2.demand_misses::.switch_cpus.data        68803                       # number of demand (read+write) misses
system.l2.demand_misses::total                  68839                       # number of demand (read+write) misses
system.l2.overall_misses::.cpu.inst                 1                       # number of overall misses
system.l2.overall_misses::.cpu.data                 1                       # number of overall misses
system.l2.overall_misses::.switch_cpus.inst           34                       # number of overall misses
system.l2.overall_misses::.switch_cpus.data        68803                       # number of overall misses
system.l2.overall_misses::total                 68839                       # number of overall misses
system.l2.demand_miss_latency::.cpu.inst        85000                       # number of demand (read+write) miss cycles
system.l2.demand_miss_latency::.cpu.data        84000                       # number of demand (read+write) miss cycles
system.l2.demand_miss_latency::total           169000                       # number of demand (read+write) miss cycles
system.l2.overall_miss_latency::.cpu.inst        85000                       # number of overall miss cycles
system.l2.overall_miss_latency::.cpu.data        84000                       # number of overall miss cycles
system.l2.overall_miss_latency::total          169000                       # number of overall miss cycles
system.l2.demand_accesses::.cpu.inst                1                       # number of demand (read+write) accesses
system.l2.demand_accesses::.cpu.data                1                       # number of demand (read+write) accesses
system.l2.demand_accesses::.switch_cpus.inst           34                       # number of demand (read+write) accesses
system.l2.demand_accesses::.switch_cpus.data       102846                       # number of demand (read+write) accesses
system.l2.demand_accesses::total               102882                       # number of demand (read+write) accesses
system.l2.overall_accesses::.cpu.inst               1                       # number of overall (read+write) accesses
system.l2.overall_accesses::.cpu.data               1                       # number of overall (read+write) accesses
system.l2.overall_accesses::.switch_cpus.inst           34                       # number of overall (read+write) accesses
system.l2.overall_accesses::.switch_cpus.data       102846                       # number of overall (read+write) accesses
system.l2.overall_accesses::total              102882                       # number of overall (read+write) accesses
system.l2.demand_miss_rate::.cpu.inst               1                       # miss rate for demand accesses
system.l2.demand_miss_rate::.cpu.data               1                       # miss rate for demand accesses
system.l2.demand_miss_rate::.switch_cpus.inst            1                       # miss rate for demand accesses
system.l2.demand_miss_rate::.switch_cpus.data     0.668991                       # miss rate for demand accesses
system.l2.demand_miss_rate::total            0.669106                       # miss rate for demand accesses
system.l2.overall_miss_rate::.cpu.inst              1                       # miss rate for overall accesses
system.l2.overall_miss_rate::.cpu.data              1                       # miss rate for overall accesses
system.l2.overall_miss_rate::.switch_cpus.inst            1                       # miss rate for overall accesses
system.l2.overall_miss_rate::.switch_cpus.data     0.668991                       # miss rate for overall accesses
system.l2.overall_miss_rate::total           0.669106                       # miss rate for overall accesses
system.l2.demand_avg_miss_latency::.cpu.inst        85000                       # average overall miss latency
system.l2.demand_avg_miss_latency::.cpu.data        84000                       # average overall miss latency
system.l2.demand_avg_miss_latency::total     2.455004                       # average overall miss latency
system.l2.overall_avg_miss_latency::.cpu.inst        85000                       # average overall miss latency
system.l2.overall_avg_miss_latency::.cpu.data        84000                       # average overall miss latency
system.l2.overall_avg_miss_latency::total     2.455004                       # average overall miss latency
system.l2.blocked_cycles::no_mshrs                  0                       # number of cycles access was blocked
system.l2.blocked_cycles::no_targets                0                       # number of cycles access was blocked
system.l2.blocked::no_mshrs                         0                       # number of cycles access was blocked
system.l2.blocked::no_targets                       0                       # number of cycles access was blocked
system.l2.avg_blocked_cycles::no_mshrs            nan                       # average number of cycles each access was blocked
system.l2.avg_blocked_cycles::no_targets          nan                       # average number of cycles each access was blocked
system.l2.writebacks::.writebacks                  49                       # number of writebacks
system.l2.writebacks::total                        49                       # number of writebacks
system.l2.demand_mshr_misses::.cpu.inst             1                       # number of demand (read+write) MSHR misses
system.l2.demand_mshr_misses::.cpu.data             1                       # number of demand (read+write) MSHR misses
system.l2.demand_mshr_misses::total                 2                       # number of demand (read+write) MSHR misses
system.l2.overall_mshr_misses::.cpu.inst            1                       # number of overall MSHR misses
system.l2.overall_mshr_misses::.cpu.data            1                       # number of overall MSHR misses
system.l2.overall_mshr_misses::total                2                       # number of overall MSHR misses
system.l2.demand_mshr_miss_latency::.cpu.inst        75000                       # number of demand (read+write) MSHR miss cycles
system.l2.demand_mshr_miss_latency::.cpu.data        74000                       # number of demand (read+write) MSHR miss cycles
system.l2.demand_mshr_miss_latency::total       149000                       # number of demand (read+write) MSHR miss cycles
system.l2.overall_mshr_miss_latency::.cpu.inst        75000                       # number of overall MSHR miss cycles
system.l2.overall_mshr_miss_latency::.cpu.data        74000                       # number of overall MSHR miss cycles
system.l2.overall_mshr_miss_latency::total       149000                       # number of overall MSHR miss cycles
system.l2.demand_mshr_miss_rate::.cpu.inst            1                       # mshr miss rate for demand accesses
system.l2.demand_mshr_miss_rate::.cpu.data            1                       # mshr miss rate for demand accesses
system.l2.demand_mshr_miss_rate::total       0.000019                       # mshr miss rate for demand accesses
system.l2.overall_mshr_miss_rate::.cpu.inst            1                       # mshr miss rate for overall accesses
system.l2.overall_mshr_miss_rate::.cpu.data            1                       # mshr miss rate for overall accesses
system.l2.overall_mshr_miss_rate::total      0.000019                       # mshr miss rate for overall accesses
system.l2.demand_avg_mshr_miss_latency::.cpu.inst        75000                       # average overall mshr miss latency
system.l2.demand_avg_mshr_miss_latency::.cpu.data        74000                       # average overall mshr miss latency
system.l2.demand_avg_mshr_miss_latency::total        74500                       # average overall mshr miss latency
system.l2.overall_avg_mshr_miss_latency::.cpu.inst        75000                       # average overall mshr miss latency
system.l2.overall_avg_mshr_miss_latency::.cpu.data        74000                       # average overall mshr miss latency
system.l2.overall_avg_mshr_miss_latency::total        74500                       # average overall mshr miss latency
system.l2.replacements                          60647                       # number of replacements
system.l2.WritebackDirty_hits::.writebacks           57                       # number of WritebackDirty hits
system.l2.WritebackDirty_hits::total               57                       # number of WritebackDirty hits
system.l2.WritebackDirty_accesses::.writebacks           57                       # number of WritebackDirty accesses(hits+misses)
system.l2.WritebackDirty_accesses::total           57                       # number of WritebackDirty accesses(hits+misses)
system.l2.ReadExReq_hits::.switch_cpus.data            2                       # number of ReadExReq hits
system.l2.ReadExReq_hits::total                     2                       # number of ReadExReq hits
system.l2.ReadExReq_misses::.switch_cpus.data           12                       # number of ReadExReq misses
system.l2.ReadExReq_misses::total                  12                       # number of ReadExReq misses
system.l2.ReadExReq_accesses::.switch_cpus.data           14                       # number of ReadExReq accesses(hits+misses)
system.l2.ReadExReq_accesses::total                14                       # number of ReadExReq accesses(hits+misses)
system.l2.ReadExReq_miss_rate::.switch_cpus.data     0.857143                       # miss rate for ReadExReq accesses
system.l2.ReadExReq_miss_rate::total         0.857143                       # miss rate for ReadExReq accesses
system.l2.ReadCleanReq_misses::.cpu.inst            1                       # number of ReadCleanReq misses
system.l2.ReadCleanReq_misses::.switch_cpus.inst           34                       # number of ReadCleanReq misses
system.l2.ReadCleanReq_misses::total               35                       # number of ReadCleanReq misses
system.l2.ReadCleanReq_miss_latency::.cpu.inst        85000                       # number of ReadCleanReq miss cycles
system.l2.ReadCleanReq_miss_latency::total        85000                       # number of ReadCleanReq miss cycles
system.l2.ReadCleanReq_accesses::.cpu.inst            1                       # number of ReadCleanReq accesses(hits+misses)
system.l2.ReadCleanReq_accesses::.switch_cpus.inst           34                       # number of ReadCleanReq accesses(hits+misses)
system.l2.ReadCleanReq_accesses::total             35                       # number of ReadCleanReq accesses(hits+misses)
system.l2.ReadCleanReq_miss_rate::.cpu.inst            1                       # miss rate for ReadCleanReq accesses
system.l2.ReadCleanReq_miss_rate::.switch_cpus.inst            1                       # miss rate for ReadCleanReq accesses
system.l2.ReadCleanReq_miss_rate::total             1                       # miss rate for ReadCleanReq accesses
system.l2.ReadCleanReq_avg_miss_latency::.cpu.inst        85000                       # average ReadCleanReq miss latency
system.l2.ReadCleanReq_avg_miss_latency::total  2428.571429                       # average ReadCleanReq miss latency
system.l2.ReadCleanReq_mshr_misses::.cpu.inst            1                       # number of ReadCleanReq MSHR misses
system.l2.ReadCleanReq_mshr_misses::total            1                       # number of ReadCleanReq MSHR misses
system.l2.ReadCleanReq_mshr_miss_latency::.cpu.inst        75000                       # number of ReadCleanReq MSHR miss cycles
system.l2.ReadCleanReq_mshr_miss_latency::total        75000                       # number of ReadCleanReq MSHR miss cycles
system.l2.ReadCleanReq_mshr_miss_rate::.cpu.inst            1                       # mshr miss rate for ReadCleanReq accesses
system.l2.ReadCleanReq_mshr_miss_rate::total     0.028571                       # mshr miss rate for ReadCleanReq accesses
system.l2.ReadCleanReq_avg_mshr_miss_latency::.cpu.inst        75000                       # average ReadCleanReq mshr miss latency
system.l2.ReadCleanReq_avg_mshr_miss_latency::total        75000                       # average ReadCleanReq mshr miss latency
system.l2.ReadSharedReq_hits::.switch_cpus.data        34041                       # number of ReadSharedReq hits
system.l2.ReadSharedReq_hits::total             34041                       # number of ReadSharedReq hits
system.l2.ReadSharedReq_misses::.cpu.data            1                       # number of ReadSharedReq misses
system.l2.ReadSharedReq_misses::.switch_cpus.data        68791                       # number of ReadSharedReq misses
system.l2.ReadSharedReq_misses::total           68792                       # number of ReadSharedReq misses
system.l2.ReadSharedReq_miss_latency::.cpu.data        84000                       # number of ReadSharedReq miss cycles
system.l2.ReadSharedReq_miss_latency::total        84000                       # number of ReadSharedReq miss cycles
system.l2.ReadSharedReq_accesses::.cpu.data            1                       # number of ReadSharedReq accesses(hits+misses)
system.l2.ReadSharedReq_accesses::.switch_cpus.data       102832                       # number of ReadSharedReq accesses(hits+misses)
system.l2.ReadSharedReq_accesses::total        102833                       # number of ReadSharedReq accesses(hits+misses)
system.l2.ReadSharedReq_miss_rate::.cpu.data            1                       # miss rate for ReadSharedReq accesses
system.l2.ReadSharedReq_miss_rate::.switch_cpus.data     0.668965                       # miss rate for ReadSharedReq accesses
system.l2.ReadSharedReq_miss_rate::total     0.668968                       # miss rate for ReadSharedReq accesses
system.l2.ReadSharedReq_avg_miss_latency::.cpu.data        84000                       # average ReadSharedReq miss latency
system.l2.ReadSharedReq_avg_miss_latency::total     1.221072                       # average ReadSharedReq miss latency
system.l2.ReadSharedReq_mshr_misses::.cpu.data            1                       # number of ReadSharedReq MSHR misses
system.l2.ReadSharedReq_mshr_misses::total            1                       # number of ReadSharedReq MSHR misses
system.l2.ReadSharedReq_mshr_miss_latency::.cpu.data        74000                       # number of ReadSharedReq MSHR miss cycles
system.l2.ReadSharedReq_mshr_miss_latency::total        74000                       # number of ReadSharedReq MSHR miss cycles
system.l2.ReadSharedReq_mshr_miss_rate::.cpu.data            1                       # mshr miss rate for ReadSharedReq accesses
system.l2.ReadSharedReq_mshr_miss_rate::total     0.000010                       # mshr miss rate for ReadSharedReq accesses
system.l2.ReadSharedReq_avg_mshr_miss_latency::.cpu.data        74000                       # average ReadSharedReq mshr miss latency
system.l2.ReadSharedReq_avg_mshr_miss_latency::total        74000                       # average ReadSharedReq mshr miss latency
system.l2.tags.pwrStateResidencyTicks::UNDEFINED 136226791034500                       # Cumulative time (in ticks) in various power states
system.l2.tags.tagsinuse                  7761.918513                       # Cycle average of tags in use
system.l2.tags.total_refs                      169360                       # Total number of references to valid blocks.
system.l2.tags.sampled_refs                     60647                       # Sample count of references to valid blocks.
system.l2.tags.avg_refs                      2.792554                       # Average number of references to valid blocks.
system.l2.tags.warmup_cycle              136214386398000                       # Cycle when the warmup percentage was hit.
system.l2.tags.occ_blocks::.cpu.inst         0.067873                       # Average occupied blocks per requestor
system.l2.tags.occ_blocks::.cpu.data         0.111414                       # Average occupied blocks per requestor
system.l2.tags.occ_blocks::.switch_cpus.inst     1.848156                       # Average occupied blocks per requestor
system.l2.tags.occ_blocks::.switch_cpus.data  7759.891071                       # Average occupied blocks per requestor
system.l2.tags.occ_percent::.cpu.inst        0.000008                       # Average percentage of cache occupancy
system.l2.tags.occ_percent::.cpu.data        0.000014                       # Average percentage of cache occupancy
system.l2.tags.occ_percent::.switch_cpus.inst     0.000226                       # Average percentage of cache occupancy
system.l2.tags.occ_percent::.switch_cpus.data     0.947252                       # Average percentage of cache occupancy
[...]
system.mem_ctrls.rank1.memoryStateTime::SREF            0                       # Time in different power states
system.mem_ctrls.rank1.memoryStateTime::PRE_PDN            0                       # Time in different power states
system.mem_ctrls.rank1.memoryStateTime::ACT            0                       # Time in different power states
system.mem_ctrls.rank1.memoryStateTime::ACT_PDN            0                       # Time in different power states
system.mem_ctrls.rank0.actEnergy                    0                       # Energy for activate commands per rank (pJ)
system.mem_ctrls.rank0.preEnergy                    0                       # Energy for precharge commands per rank (pJ)
system.mem_ctrls.rank0.readEnergy                   0                       # Energy for read commands per rank (pJ)
system.mem_ctrls.rank0.writeEnergy                  0                       # Energy for write commands per rank (pJ)
system.mem_ctrls.rank0.refreshEnergy                0                       # Energy for refresh commands per rank (pJ)
system.mem_ctrls.rank0.actBackEnergy                0                       # Energy for active background per rank (pJ)
system.mem_ctrls.rank0.preBackEnergy      14281056480                       # Energy for precharge background per rank (pJ)
system.mem_ctrls.rank0.actPowerDownEnergy            0                       # Energy for active power-down per rank (pJ)
system.mem_ctrls.rank0.prePowerDownEnergy            0                       # Energy for precharge power-down per rank (pJ)
system.mem_ctrls.rank0.selfRefreshEnergy            0                       # Energy for self refresh per rank (pJ)
system.mem_ctrls.rank0.totalEnergy        14281056480                       # Total energy per rank (pJ)
system.mem_ctrls.rank0.averagePower        384.000003                       # Core power per rank (mW)
system.mem_ctrls.rank0.totalIdleTime                0                       # Total Idle time Per DRAM Rank
system.mem_ctrls.rank0.memoryStateTime::IDLE  37190251000                       # Time in different power states
system.mem_ctrls.rank0.memoryStateTime::REF            0                       # Time in different power states
system.mem_ctrls.rank0.memoryStateTime::SREF            0                       # Time in different power states
system.mem_ctrls.rank0.memoryStateTime::PRE_PDN            0                       # Time in different power states
system.mem_ctrls.rank0.memoryStateTime::ACT            0                       # Time in different power states
system.mem_ctrls.rank0.memoryStateTime::ACT_PDN            0                       # Time in different power states
system.cpu_clk_domain.clock                       500                       # Clock period in ticks
system.cpu.pwrStateResidencyTicks::OFF    37190251000                       # Cumulative time (in ticks) in various power states
system.cpu.icache.pwrStateResidencyTicks::UNDEFINED  37190251000                       # Cumulative time (in ticks) in various power states
system.cpu.icache.demand_hits::.switch_cpus.inst     43150200                       # number of demand (read+write) hits
system.cpu.icache.demand_hits::total         43150200                       # number of demand (read+write) hits
system.cpu.icache.overall_hits::.switch_cpus.inst     43150200                       # number of overall hits
system.cpu.icache.overall_hits::total        43150200                       # number of overall hits
system.cpu.icache.demand_misses::.switch_cpus.inst            1                       # number of demand (read+write) misses
system.cpu.icache.demand_misses::total              1                       # number of demand (read+write) misses
system.cpu.icache.overall_misses::.switch_cpus.inst            1                       # number of overall misses
system.cpu.icache.overall_misses::total             1                       # number of overall misses
system.cpu.icache.demand_accesses::.switch_cpus.inst     43150201                       # number of demand (read+write) accesses
system.cpu.icache.demand_accesses::total     43150201                       # number of demand (read+write) accesses
system.cpu.icache.overall_accesses::.switch_cpus.inst     43150201                       # number of overall (read+write) accesses
system.cpu.icache.overall_accesses::total     43150201                       # number of overall (read+write) accesses
system.cpu.icache.demand_miss_rate::.switch_cpus.inst     0.000000                       # miss rate for demand accesses
system.cpu.icache.demand_miss_rate::total     0.000000                       # miss rate for demand accesses
system.cpu.icache.overall_miss_rate::.switch_cpus.inst     0.000000                       # miss rate for overall accesses
system.cpu.icache.overall_miss_rate::total     0.000000                       # miss rate for overall accesses
system.cpu.icache.blocked_cycles::no_mshrs            0                       # number of cycles access was blocked
system.cpu.icache.blocked_cycles::no_targets            0                       # number of cycles access was blocked
system.cpu.icache.blocked::no_mshrs                 0                       # number of cycles access was blocked
system.cpu.icache.blocked::no_targets               0                       # number of cycles access was blocked
system.cpu.icache.avg_blocked_cycles::no_mshrs          nan                       # average number of cycles each access was blocked
system.cpu.icache.avg_blocked_cycles::no_targets          nan                       # average number of cycles each access was blocked
system.cpu.icache.replacements                      0                       # number of replacements
system.cpu.icache.ReadReq_hits::.switch_cpus.inst     43150200                       # number of ReadReq hits
system.cpu.icache.ReadReq_hits::total        43150200                       # number of ReadReq hits
system.cpu.icache.ReadReq_misses::.switch_cpus.inst            1                       # number of ReadReq misses
system.cpu.icache.ReadReq_misses::total             1                       # number of ReadReq misses
system.cpu.icache.ReadReq_accesses::.switch_cpus.inst     43150201                       # number of ReadReq accesses(hits+misses)
system.cpu.icache.ReadReq_accesses::total     43150201                       # number of ReadReq accesses(hits+misses)
system.cpu.icache.ReadReq_miss_rate::.switch_cpus.inst     0.000000                       # miss rate for ReadReq accesses
system.cpu.icache.ReadReq_miss_rate::total     0.000000                       # miss rate for ReadReq accesses
system.cpu.icache.tags.pwrStateResidencyTicks::UNDEFINED  37190251000                       # Cumulative time (in ticks) in various power states
system.cpu.icache.tags.tagsinuse            35.873225                       # Cycle average of tags in use
system.cpu.icache.tags.total_refs            57533586                       # Total number of references to valid blocks.
system.cpu.icache.tags.sampled_refs                36                       # Sample count of references to valid blocks.
system.cpu.icache.tags.avg_refs          1598155.166667                       # Average number of references to valid blocks.
system.cpu.icache.tags.warmup_cycle                 0                       # Cycle when the warmup percentage was hit.
system.cpu.icache.tags.occ_blocks::.cpu.inst            1                       # Average occupied blocks per requestor
system.cpu.icache.tags.occ_blocks::.switch_cpus.inst    34.873225                       # Average occupied blocks per requestor
system.cpu.icache.tags.occ_percent::.cpu.inst     0.001953                       # Average percentage of cache occupancy
system.cpu.icache.tags.occ_percent::.switch_cpus.inst     0.068112                       # Average percentage of cache occupancy
system.cpu.icache.tags.occ_percent::total     0.070065                       # Average percentage of cache occupancy
system.cpu.icache.tags.occ_task_id_blocks::1024           36                       # Occupied blocks per task id
system.cpu.icache.tags.age_task_id_blocks_1024::4           36                       # Occupied blocks per task id
system.cpu.icache.tags.occ_task_id_percent::1024     0.070312                       # Percentage of cache occupancy per task id
system.cpu.icache.tags.tag_accesses          86300403                       # Number of tag accesses
system.cpu.icache.tags.data_accesses         86300403                       # Number of data accesses
system.cpu.dtb.walker.pwrStateResidencyTicks::UNDEFINED  37190251000                       # Cumulative time (in ticks) in various power states
system.cpu.interrupts.clk_domain.clock           8000                       # Clock period in ticks
system.cpu.itb_walker_cache.pwrStateResidencyTicks::UNDEFINED  37190251000                       # Cumulative time (in ticks) in various power states
system.cpu.itb_walker_cache.blocked_cycles::no_mshrs            0                       # number of cycles access was blocked
system.cpu.itb_walker_cache.blocked_cycles::no_targets            0                       # number of cycles access was blocked
system.cpu.itb_walker_cache.blocked::no_mshrs            0                       # number of cycles access was blocked
system.cpu.itb_walker_cache.blocked::no_targets            0                       # number of cycles access was blocked
system.cpu.itb_walker_cache.avg_blocked_cycles::no_mshrs          nan                       # average number of cycles each access was blocked
system.cpu.itb_walker_cache.avg_blocked_cycles::no_targets          nan                       # average number of cycles each access was blocked
system.cpu.itb_walker_cache.replacements            0                       # number of replacements
system.cpu.itb_walker_cache.tags.pwrStateResidencyTicks::UNDEFINED  37190251000                       # Cumulative time (in ticks) in various power states
system.cpu.itb_walker_cache.tags.tagsinuse            0                       # Cycle average of tags in use
system.cpu.itb_walker_cache.tags.total_refs            0                       # Total number of references to valid blocks.
system.cpu.itb_walker_cache.tags.sampled_refs            0                       # Sample count of references to valid blocks.
system.cpu.itb_walker_cache.tags.avg_refs          nan                       # Average number of references to valid blocks.
system.cpu.itb_walker_cache.tags.warmup_cycle            0                       # Cycle when the warmup percentage was hit.
system.cpu.itb_walker_cache.tags.tag_accesses            0                       # Number of tag accesses
system.cpu.itb_walker_cache.tags.data_accesses            0                       # Number of data accesses
system.cpu.itb.walker.pwrStateResidencyTicks::UNDEFINED  37190251000                       # Cumulative time (in ticks) in various power states
system.cpu.dtb_walker_cache.pwrStateResidencyTicks::UNDEFINED  37190251000                       # Cumulative time (in ticks) in various power states
system.cpu.dtb_walker_cache.blocked_cycles::no_mshrs            0                       # number of cycles access was blocked
system.cpu.dtb_walker_cache.blocked_cycles::no_targets            0                       # number of cycles access was blocked
system.cpu.dtb_walker_cache.blocked::no_mshrs            0                       # number of cycles access was blocked
system.cpu.dtb_walker_cache.blocked::no_targets            0                       # number of cycles access was blocked
system.cpu.dtb_walker_cache.avg_blocked_cycles::no_mshrs          nan                       # average number of cycles each access was blocked
system.cpu.dtb_walker_cache.avg_blocked_cycles::no_targets          nan                       # average number of cycles each access was blocked
system.cpu.dtb_walker_cache.replacements            0                       # number of replacements
system.cpu.dtb_walker_cache.tags.pwrStateResidencyTicks::UNDEFINED  37190251000                       # Cumulative time (in ticks) in various power states
system.cpu.dtb_walker_cache.tags.tagsinuse            0                       # Cycle average of tags in use
system.cpu.dtb_walker_cache.tags.total_refs            0                       # Total number of references to valid blocks.
system.cpu.dtb_walker_cache.tags.sampled_refs            0                       # Sample count of references to valid blocks.
system.cpu.dtb_walker_cache.tags.avg_refs          nan                       # Average number of references to valid blocks.
system.cpu.dtb_walker_cache.tags.warmup_cycle            0                       # Cycle when the warmup percentage was hit.
system.cpu.dtb_walker_cache.tags.tag_accesses            0                       # Number of tag accesses
system.cpu.dtb_walker_cache.tags.data_accesses            0                       # Number of data accesses
system.cpu.dcache.pwrStateResidencyTicks::UNDEFINED  37190251000                       # Cumulative time (in ticks) in various power states
system.cpu.dcache.demand_hits::.switch_cpus.data     13664495                       # number of demand (read+write) hits
system.cpu.dcache.demand_hits::total         13664495                       # number of demand (read+write) hits
system.cpu.dcache.overall_hits::.switch_cpus.data     13664495                       # number of overall hits
system.cpu.dcache.overall_hits::total        13664495                       # number of overall hits
system.cpu.dcache.demand_misses::.switch_cpus.data       308150                       # number of demand (read+write) misses
system.cpu.dcache.demand_misses::total         308150                       # number of demand (read+write) misses
system.cpu.dcache.overall_misses::.switch_cpus.data       308150                       # number of overall misses
system.cpu.dcache.overall_misses::total        308150                       # number of overall misses
system.cpu.dcache.demand_accesses::.switch_cpus.data     13972645                       # number of demand (read+write) accesses
system.cpu.dcache.demand_accesses::total     13972645                       # number of demand (read+write) accesses
system.cpu.dcache.overall_accesses::.switch_cpus.data     13972645                       # number of overall (read+write) accesses
system.cpu.dcache.overall_accesses::total     13972645                       # number of overall (read+write) accesses
system.cpu.dcache.demand_miss_rate::.switch_cpus.data     0.022054                       # miss rate for demand accesses
system.cpu.dcache.demand_miss_rate::total     0.022054                       # miss rate for demand accesses
system.cpu.dcache.overall_miss_rate::.switch_cpus.data     0.022054                       # miss rate for overall accesses
system.cpu.dcache.overall_miss_rate::total     0.022054                       # miss rate for overall accesses
system.cpu.dcache.blocked_cycles::no_mshrs            0                       # number of cycles access was blocked
system.cpu.dcache.blocked_cycles::no_targets            0                       # number of cycles access was blocked
system.cpu.dcache.blocked::no_mshrs                 0                       # number of cycles access was blocked
system.cpu.dcache.blocked::no_targets               0                       # number of cycles access was blocked
system.cpu.dcache.avg_blocked_cycles::no_mshrs          nan                       # average number of cycles each access was blocked
system.cpu.dcache.avg_blocked_cycles::no_targets          nan                       # average number of cycles each access was blocked
system.cpu.dcache.writebacks::.writebacks          158                       # number of writebacks
system.cpu.dcache.writebacks::total               158                       # number of writebacks
system.cpu.dcache.replacements                 308150                       # number of replacements
system.cpu.dcache.ReadReq_hits::.switch_cpus.data     13253047                       # number of ReadReq hits
system.cpu.dcache.ReadReq_hits::total        13253047                       # number of ReadReq hits
system.cpu.dcache.ReadReq_misses::.switch_cpus.data       308108                       # number of ReadReq misses
system.cpu.dcache.ReadReq_misses::total        308108                       # number of ReadReq misses
system.cpu.dcache.ReadReq_accesses::.switch_cpus.data     13561155                       # number of ReadReq accesses(hits+misses)
system.cpu.dcache.ReadReq_accesses::total     13561155                       # number of ReadReq accesses(hits+misses)
system.cpu.dcache.ReadReq_miss_rate::.switch_cpus.data     0.022720                       # miss rate for ReadReq accesses
system.cpu.dcache.ReadReq_miss_rate::total     0.022720                       # miss rate for ReadReq accesses
system.cpu.dcache.WriteReq_hits::.switch_cpus.data       411448                       # number of WriteReq hits
system.cpu.dcache.WriteReq_hits::total         411448                       # number of WriteReq hits
system.cpu.dcache.WriteReq_misses::.switch_cpus.data           42                       # number of WriteReq misses
system.cpu.dcache.WriteReq_misses::total           42                       # number of WriteReq misses
system.cpu.dcache.WriteReq_accesses::.switch_cpus.data       411490                       # number of WriteReq accesses(hits+misses)
system.cpu.dcache.WriteReq_accesses::total       411490                       # number of WriteReq accesses(hits+misses)
system.cpu.dcache.WriteReq_miss_rate::.switch_cpus.data     0.000102                       # miss rate for WriteReq accesses
system.cpu.dcache.WriteReq_miss_rate::total     0.000102                       # miss rate for WriteReq accesses
system.cpu.dcache.tags.pwrStateResidencyTicks::UNDEFINED  37190251000                       # Cumulative time (in ticks) in various power states
system.cpu.dcache.tags.tagsinuse                 1024                       # Cycle average of tags in use
system.cpu.dcache.tags.total_refs            14287578                       # Total number of references to valid blocks.
system.cpu.dcache.tags.sampled_refs            309174                       # Sample count of references to valid blocks.
system.cpu.dcache.tags.avg_refs             46.212094                       # Average number of references to valid blocks.
system.cpu.dcache.tags.warmup_cycle                 0                       # Cycle when the warmup percentage was hit.
system.cpu.dcache.tags.occ_blocks::.switch_cpus.data         1024                       # Average occupied blocks per requestor
system.cpu.dcache.tags.occ_percent::.switch_cpus.data            1                       # Average percentage of cache occupancy
system.cpu.dcache.tags.occ_percent::total            1                       # Average percentage of cache occupancy
system.cpu.dcache.tags.occ_task_id_blocks::1024         1024                       # Occupied blocks per task id
system.cpu.dcache.tags.age_task_id_blocks_1024::0           83                       # Occupied blocks per task id
system.cpu.dcache.tags.age_task_id_blocks_1024::1          590                       # Occupied blocks per task id
system.cpu.dcache.tags.age_task_id_blocks_1024::2          350                       # Occupied blocks per task id
system.cpu.dcache.tags.age_task_id_blocks_1024::4            1                       # Occupied blocks per task id
system.cpu.dcache.tags.occ_task_id_percent::1024            1                       # Percentage of cache occupancy per task id
system.cpu.dcache.tags.tag_accesses          28253440                       # Number of tag accesses
system.cpu.dcache.tags.data_accesses         28253440                       # Number of data accesses

---------- End Simulation Statistics   ----------
