
---------- Begin Simulation Statistics ----------
final_tick                               270775953730000                       # Number of ticks from beginning of simulation (restored from checkpoints and never reset)
host_inst_rate                                  48036                       # Simulator instruction rate (inst/s)
host_mem_usage                                 804640                       # Number of bytes of host memory used
host_op_rate                                    80219                       # Simulator op (including micro ops) rate (op/s)
host_seconds                                   208.18                       # Real time elapsed on the host
host_tick_rate                               41664949                       # Simulator tick rate (ticks/s)
sim_freq                                 1000000000000                       # Frequency of simulated ticks
sim_insts                                    10000010                       # Number of instructions simulated
sim_ops                                      16699646                       # Number of ops (including micro ops) simulated
sim_seconds                                  0.008674                       # Number of seconds simulated
sim_ticks                                  8673676250                       # Number of ticks simulated
system.cpu.Branches                                 1                       # Number of branches fetched
system.cpu.committedInsts                           7                       # Number of instructions committed
system.cpu.committedOps                            18                       # Number of ops (including micro ops) committed
system.cpu.dtb.rdAccesses                           5                       # TLB accesses on read requests
system.cpu.dtb.rdMisses                             0                       # TLB misses on read requests
system.cpu.dtb.wrAccesses                           1                       # TLB accesses on write requests
system.cpu.dtb.wrMisses                             0                       # TLB misses on write requests
system.cpu.idle_fraction                            0                       # Percentage of idle cycles
system.cpu.itb.rdAccesses                           0                       # TLB accesses on read requests
system.cpu.itb.rdMisses                             0                       # TLB misses on read requests
system.cpu.itb.wrAccesses                           9                       # TLB accesses on write requests
system.cpu.itb.wrMisses                             0                       # TLB misses on write requests
system.cpu.not_idle_fraction                        1                       # Percentage of non-idle cycles
system.cpu.numCycles                               20                       # number of cpu cycles simulated
system.cpu.numWorkItemsCompleted                    0                       # number of work items this cpu completed
system.cpu.numWorkItemsStarted                      0                       # number of work items this cpu started
system.cpu.num_busy_cycles                         20                       # Number of busy cycles
system.cpu.num_cc_register_writes                   2                       # number of times the CC registers were written
system.cpu.num_conditional_control_insts            0                       # number of instructions that are conditional controls
system.cpu.num_fp_alu_accesses                      0                       # Number of float alu accesses
system.cpu.num_fp_insts                             0                       # number of float instructions
system.cpu.num_fp_register_reads                    0                       # number of times the floating registers were read
system.cpu.num_fp_register_writes                   0                       # number of times the floating registers were written
system.cpu.num_func_calls                           1                       # number of times a function call or return occured
system.cpu.num_idle_cycles                          0                       # Number of idle cycles
system.cpu.num_int_alu_accesses                    18                       # Number of integer alu accesses
system.cpu.num_int_insts                           18                       # number of integer instructions
system.cpu.num_int_register_reads                  40                       # number of times the integer registers were read
system.cpu.num_int_register_writes                 16                       # number of times the integer registers were written
system.cpu.num_load_insts                           5                       # Number of load instructions
system.cpu.num_mem_refs                             6                       # number of memory refs
system.cpu.num_store_insts                          1                       # Number of store instructions
system.cpu.num_vec_alu_accesses                     0                       # Number of vector alu accesses
system.cpu.num_vec_insts                            0                       # number of vector instructions
system.cpu.num_vec_register_reads                   0                       # number of times the vector registers were read
system.cpu.num_vec_register_writes                  0                       # number of times the vector registers were written
system.cpu.op_class::No_OpClass                     0      0.00%      0.00% # Class of executed instruction
system.cpu.op_class::IntAlu                        12     66.67%     66.67% # Class of executed instruction
system.cpu.op_class::IntMult                        0      0.00%     66.67% # Class of executed instruction
system.cpu.op_class::IntDiv                         0      0.00%     66.67% # Class of executed instruction
system.cpu.op_class::FloatAdd                       0      0.00%     66.67% # Class of executed instruction
system.cpu.op_class::FloatCmp                       0      0.00%     66.67% # Class of executed instruction
system.cpu.op_class::FloatCvt                       0      0.00%     66.67% # Class of executed instruction
system.cpu.op_class::FloatMult                      0      0.00%     66.67% # Class of executed instruction
system.cpu.op_class::FloatMultAcc                   0      0.00%     66.67% # Class of executed instruction
system.cpu.op_class::FloatDiv                       0      0.00%     66.67% # Class of executed instruction
system.cpu.op_class::FloatMisc                      0      0.00%     66.67% # Class of executed instruction
system.cpu.op_class::FloatSqrt                      0      0.00%     66.67% # Class of executed instruction
system.cpu.op_class::SimdAdd                        0      0.00%     66.67% # Class of executed instruction
system.cpu.op_class::SimdAddAcc                     0      0.00%     66.67% # Class of executed instruction
system.cpu.op_class::SimdAlu                        0      0.00%     66.67% # Class of executed instruction
system.cpu.op_class::SimdCmp                        0      0.00%     66.67% # Class of executed instruction
system.cpu.op_class::SimdCvt                        0      0.00%     66.67% # Class of executed instruction
system.cpu.op_class::SimdMisc                       0      0.00%     66.67% # Class of executed instruction
system.cpu.op_class::SimdMult                       0      0.00%     66.67% # Class of executed instruction
system.cpu.op_class::SimdMultAcc                    0      0.00%     66.67% # Class of executed instruction
system.cpu.op_class::SimdShift                      0      0.00%     66.67% # Class of executed instruction
system.cpu.op_class::SimdShiftAcc                   0      0.00%     66.67% # Class of executed instruction
system.cpu.op_class::SimdDiv                        0      0.00%     66.67% # Class of executed instruction
system.cpu.op_class::SimdSqrt                       0      0.00%     66.67% # Class of executed instruction
system.cpu.op_class::SimdFloatAdd                   0      0.00%     66.67% # Class of executed instruction
system.cpu.op_class::SimdFloatAlu                   0      0.00%     66.67% # Class of executed instruction
system.cpu.op_class::SimdFloatCmp                   0      0.00%     66.67% # Class of executed instruction
system.cpu.op_class::SimdFloatCvt                   0      0.00%     66.67% # Class of executed instruction
system.cpu.op_class::SimdFloatDiv                   0      0.00%     66.67% # Class of executed instruction
system.cpu.op_class::SimdFloatMisc                  0      0.00%     66.67% # Class of executed instruction
system.cpu.op_class::SimdFloatMult                  0      0.00%     66.67% # Class of executed instruction
system.cpu.op_class::SimdFloatMultAcc               0      0.00%     66.67% # Class of executed instruction
system.cpu.op_class::SimdFloatSqrt                  0      0.00%     66.67% # Class of executed instruction
system.cpu.op_class::SimdReduceAdd                  0      0.00%     66.67% # Class of executed instruction
system.cpu.op_class::SimdReduceAlu                  0      0.00%     66.67% # Class of executed instruction
system.cpu.op_class::SimdReduceCmp                  0      0.00%     66.67% # Class of executed instruction
system.cpu.op_class::SimdFloatReduceAdd             0      0.00%     66.67% # Class of executed instruction
system.cpu.op_class::SimdFloatReduceCmp             0      0.00%     66.67% # Class of executed instruction
system.cpu.op_class::SimdAes                        0      0.00%     66.67% # Class of executed instruction
system.cpu.op_class::SimdAesMix                     0      0.00%     66.67% # Class of executed instruction
system.cpu.op_class::SimdSha1Hash                   0      0.00%     66.67% # Class of executed instruction
system.cpu.op_class::SimdSha1Hash2                  0      0.00%     66.67% # Class of executed instruction
system.cpu.op_class::SimdSha256Hash                 0      0.00%     66.67% # Class of executed instruction
system.cpu.op_class::SimdSha256Hash2                0      0.00%     66.67% # Class of executed instruction
system.cpu.op_class::SimdShaSigma2                  0      0.00%     66.67% # Class of executed instruction
system.cpu.op_class::SimdShaSigma3                  0      0.00%     66.67% # Class of executed instruction
system.cpu.op_class::SimdPredAlu                    0      0.00%     66.67% # Class of executed instruction
system.cpu.op_class::MemRead                        5     27.78%     94.44% # Class of executed instruction
system.cpu.op_class::MemWrite                       1      5.56%    100.00% # Class of executed instruction
system.cpu.op_class::FloatMemRead                   0      0.00%    100.00% # Class of executed instruction
system.cpu.op_class::FloatMemWrite                  0      0.00%    100.00% # Class of executed instruction
system.cpu.op_class::IprAccess                      0      0.00%    100.00% # Class of executed instruction
system.cpu.op_class::InstPrefetch                   0      0.00%    100.00% # Class of executed instruction
system.cpu.op_class::total                         18                       # Class of executed instruction
system.cpu.workload.numSyscalls                     0                       # Number of system calls
system.membus.snoop_filter.hit_multi_requests            0                       # Number of requests hitting in the snoop filter with multiple (>1) holders of the requested data.
system.membus.snoop_filter.hit_multi_snoops            0                       # Number of snoops hitting in the snoop filter with multiple (>1) holders of the requested data.
system.membus.snoop_filter.hit_single_requests       151854                       # Number of requests hitting in the snoop filter with a single holder of the requested data.
system.membus.snoop_filter.hit_single_snoops            0                       # Number of snoops hitting in the snoop filter with a single holder of the requested data.
system.membus.snoop_filter.tot_requests        308093                       # Total number of requests made to the snoop filter.
system.membus.snoop_filter.tot_snoops               0                       # Total number of snoops made to the snoop filter.
system.switch_cpus.branchPred.BTBCorrect            0                       # Number of correct BTB predictions (this stat may not work properly.
system.switch_cpus.branchPred.BTBHitPct      0.000000                       # BTB Hit Percentage
system.switch_cpus.branchPred.BTBHits               0                       # Number of BTB hits
system.switch_cpus.branchPred.BTBLookups      1225087                       # Number of BTB lookups
system.switch_cpus.branchPred.RASInCorrect           32                       # Number of incorrect RAS predictions.
system.switch_cpus.branchPred.condIncorrect        60697                       # Number of conditional branches incorrect
system.switch_cpus.branchPred.condPredicted      1258426                       # Number of conditional branches predicted
system.switch_cpus.branchPred.indirectHits       942170                       # Number of indirect target hits.
system.switch_cpus.branchPred.indirectLookups      1225087                       # Number of indirect predictor lookups.
system.switch_cpus.branchPred.indirectMisses       282917                       # Number of indirect misses.
system.switch_cpus.branchPred.lookups         1329202                       # Number of BP lookups
system.switch_cpus.branchPred.usedRAS           35126                       # Number of times the RAS was used to get a target.
system.switch_cpus.branchPredindirectMispredicted        12636                       # Number of mispredicted indirect branches.
system.switch_cpus.cc_regfile_reads           6146558                       # number of cc regfile reads
system.switch_cpus.cc_regfile_writes          4089084                       # number of cc regfile writes
system.switch_cpus.commit.amos                      0                       # Number of atomic instructions committed
system.switch_cpus.commit.branchMispredicts        60767                       # The number of times a branch was mispredicted
system.switch_cpus.commit.branches            1012410                       # Number of branches committed
system.switch_cpus.commit.bw_lim_events       1374094                       # number cycles where commit BW limit reached
system.switch_cpus.commit.commitSquashedInsts      2208101                       # The number of squashed insts skipped by commit
system.switch_cpus.commit.committedInsts     10000003                       # Number of instructions committed
system.switch_cpus.commit.committedOps       16699628                       # Number of ops (including micro ops) committed
system.switch_cpus.commit.committed_per_cycle::samples     17005409                       # Number of insts commited each cycle
system.switch_cpus.commit.committed_per_cycle::mean     0.982019                       # Number of insts commited each cycle
system.switch_cpus.commit.committed_per_cycle::stdev     2.346329                       # Number of insts commited each cycle
system.switch_cpus.commit.committed_per_cycle::underflows            0      0.00%      0.00% # Number of insts commited each cycle
system.switch_cpus.commit.committed_per_cycle::0     13521602     79.51%     79.51% # Number of insts commited each cycle
system.switch_cpus.commit.committed_per_cycle::1       947704      5.57%     85.09% # Number of insts commited each cycle
system.switch_cpus.commit.committed_per_cycle::2       119320      0.70%     85.79% # Number of insts commited each cycle
system.switch_cpus.commit.committed_per_cycle::3       191371      1.13%     86.91% # Number of insts commited each cycle
system.switch_cpus.commit.committed_per_cycle::4       479004      2.82%     89.73% # Number of insts commited each cycle
system.switch_cpus.commit.committed_per_cycle::5       253551      1.49%     91.22% # Number of insts commited each cycle
system.switch_cpus.commit.committed_per_cycle::6        68693      0.40%     91.63% # Number of insts commited each cycle
system.switch_cpus.commit.committed_per_cycle::7        50070      0.29%     91.92% # Number of insts commited each cycle
system.switch_cpus.commit.committed_per_cycle::8      1374094      8.08%    100.00% # Number of insts commited each cycle
system.switch_cpus.commit.committed_per_cycle::overflows            0      0.00%    100.00% # Number of insts commited each cycle
system.switch_cpus.commit.committed_per_cycle::min_value            0                       # Number of insts commited each cycle
system.switch_cpus.commit.committed_per_cycle::max_value            8                       # Number of insts commited each cycle
system.switch_cpus.commit.committed_per_cycle::total     17005409                       # Number of insts commited each cycle
system.switch_cpus.commit.fp_insts            9250008                       # Number of committed floating point instructions.
system.switch_cpus.commit.function_calls        18108                       # Number of function calls committed.
system.switch_cpus.commit.int_insts           9386149                       # Number of committed integer instructions.
system.switch_cpus.commit.loads               2651089                       # Number of loads committed
system.switch_cpus.commit.membars                   0                       # Number of memory barriers committed
system.switch_cpus.commit.op_class_0::No_OpClass        28068      0.17%      0.17% # Class of committed instruction
system.switch_cpus.commit.op_class_0::IntAlu      7077496     42.38%     42.55% # Class of committed instruction
system.switch_cpus.commit.op_class_0::IntMult           15      0.00%     42.55% # Class of committed instruction
system.switch_cpus.commit.op_class_0::IntDiv           77      0.00%     42.55% # Class of committed instruction
system.switch_cpus.commit.op_class_0::FloatAdd       834706      5.00%     47.55% # Class of committed instruction
system.switch_cpus.commit.op_class_0::FloatCmp            0      0.00%     47.55% # Class of committed instruction
system.switch_cpus.commit.op_class_0::FloatCvt            0      0.00%     47.55% # Class of committed instruction
system.switch_cpus.commit.op_class_0::FloatMult            0      0.00%     47.55% # Class of committed instruction
system.switch_cpus.commit.op_class_0::FloatMultAcc            0      0.00%     47.55% # Class of committed instruction
system.switch_cpus.commit.op_class_0::FloatDiv            0      0.00%     47.55% # Class of committed instruction
system.switch_cpus.commit.op_class_0::FloatMisc            0      0.00%     47.55% # Class of committed instruction
system.switch_cpus.commit.op_class_0::FloatSqrt            0      0.00%     47.55% # Class of committed instruction
system.switch_cpus.commit.op_class_0::SimdAdd            0      0.00%     47.55% # Class of committed instruction
system.switch_cpus.commit.op_class_0::SimdAddAcc            0      0.00%     47.55% # Class of committed instruction
system.switch_cpus.commit.op_class_0::SimdAlu      1472440      8.82%     56.37% # Class of committed instruction
system.switch_cpus.commit.op_class_0::SimdCmp            0      0.00%     56.37% # Class of committed instruction
system.switch_cpus.commit.op_class_0::SimdCvt            6      0.00%     56.37% # Class of committed instruction
system.switch_cpus.commit.op_class_0::SimdMisc        40222      0.24%     56.61% # Class of committed instruction
system.switch_cpus.commit.op_class_0::SimdMult            0      0.00%     56.61% # Class of committed instruction
system.switch_cpus.commit.op_class_0::SimdMultAcc            0      0.00%     56.61% # Class of committed instruction
system.switch_cpus.commit.op_class_0::SimdShift            0      0.00%     56.61% # Class of committed instruction
system.switch_cpus.commit.op_class_0::SimdShiftAcc            0      0.00%     56.61% # Class of committed instruction
system.switch_cpus.commit.op_class_0::SimdDiv            0      0.00%     56.61% # Class of committed instruction
system.switch_cpus.commit.op_class_0::SimdSqrt            0      0.00%     56.61% # Class of committed instruction
system.switch_cpus.commit.op_class_0::SimdFloatAdd      1392117      8.34%     64.94% # Class of committed instruction
system.switch_cpus.commit.op_class_0::SimdFloatAlu            0      0.00%     64.94% # Class of committed instruction
system.switch_cpus.commit.op_class_0::SimdFloatCmp        20118      0.12%     65.06% # Class of committed instruction
system.switch_cpus.commit.op_class_0::SimdFloatCvt      1492478      8.94%     74.00% # Class of committed instruction
system.switch_cpus.commit.op_class_0::SimdFloatDiv            0      0.00%     74.00% # Class of committed instruction
system.switch_cpus.commit.op_class_0::SimdFloatMisc            0      0.00%     74.00% # Class of committed instruction
system.switch_cpus.commit.op_class_0::SimdFloatMult      1432276      8.58%     82.58% # Class of committed instruction
system.switch_cpus.commit.op_class_0::SimdFloatMultAcc            0      0.00%     82.58% # Class of committed instruction
system.switch_cpus.commit.op_class_0::SimdFloatSqrt            0      0.00%     82.58% # Class of committed instruction
system.switch_cpus.commit.op_class_0::SimdReduceAdd            0      0.00%     82.58% # Class of committed instruction
system.switch_cpus.commit.op_class_0::SimdReduceAlu            0      0.00%     82.58% # Class of committed instruction
system.switch_cpus.commit.op_class_0::SimdReduceCmp            0      0.00%     82.58% # Class of committed instruction
system.switch_cpus.commit.op_class_0::SimdFloatReduceAdd            0      0.00%     82.58% # Class of committed instruction
system.switch_cpus.commit.op_class_0::SimdFloatReduceCmp            0      0.00%     82.58% # Class of committed instruction
system.switch_cpus.commit.op_class_0::SimdAes            0      0.00%     82.58% # Class of committed instruction
system.switch_cpus.commit.op_class_0::SimdAesMix            0      0.00%     82.58% # Class of committed instruction
system.switch_cpus.commit.op_class_0::SimdSha1Hash            0      0.00%     82.58% # Class of committed instruction
system.switch_cpus.commit.op_class_0::SimdSha1Hash2            0      0.00%     82.58% # Class of committed instruction
system.switch_cpus.commit.op_class_0::SimdSha256Hash            0      0.00%     82.58% # Class of committed instruction
system.switch_cpus.commit.op_class_0::SimdSha256Hash2            0      0.00%     82.58% # Class of committed instruction
system.switch_cpus.commit.op_class_0::SimdShaSigma2            0      0.00%     82.58% # Class of committed instruction
system.switch_cpus.commit.op_class_0::SimdShaSigma3            0      0.00%     82.58% # Class of committed instruction
system.switch_cpus.commit.op_class_0::SimdPredAlu            0      0.00%     82.58% # Class of committed instruction
system.switch_cpus.commit.op_class_0::MemRead       789848      4.73%     87.31% # Class of committed instruction
system.switch_cpus.commit.op_class_0::MemWrite       194915      1.17%     88.47% # Class of committed instruction
system.switch_cpus.commit.op_class_0::FloatMemRead      1861241     11.15%     99.62% # Class of committed instruction
system.switch_cpus.commit.op_class_0::FloatMemWrite        63605      0.38%    100.00% # Class of committed instruction
system.switch_cpus.commit.op_class_0::IprAccess            0      0.00%    100.00% # Class of committed instruction
system.switch_cpus.commit.op_class_0::InstPrefetch            0      0.00%    100.00% # Class of committed instruction
system.switch_cpus.commit.op_class_0::total     16699628                       # Class of committed instruction
system.switch_cpus.commit.refs                2909609                       # Number of memory references committed
system.switch_cpus.commit.swp_count                 0                       # Number of s/w prefetches committed
system.switch_cpus.commit.vec_insts                 0                       # Number of committed Vector instructions.
system.switch_cpus.committedInsts            10000003                       # Number of Instructions Simulated
system.switch_cpus.committedOps              16699628                       # Number of Ops (including micro ops) Simulated
system.switch_cpus.cpi                       1.734733                       # CPI: Cycles Per Instruction
system.switch_cpus.cpi_total                 1.734733                       # CPI: Total CPI of All Threads
system.switch_cpus.decode.BlockedCycles      13473545                       # Number of cycles decode is blocked
system.switch_cpus.decode.DecodedInsts       19647159                       # Number of instructions handled by decode
system.switch_cpus.decode.IdleCycles          1010806                       # Number of cycles decode is idle
system.switch_cpus.decode.RunCycles           1896373                       # Number of cycles decode is running
system.switch_cpus.decode.SquashCycles          60966                       # Number of cycles decode is squashing
system.switch_cpus.decode.UnblockCycles        875550                       # Number of cycles decode is unblocking
system.switch_cpus.dtb.rdAccesses             3018622                       # TLB accesses on read requests
system.switch_cpus.dtb.rdMisses                 10912                       # TLB misses on read requests
system.switch_cpus.dtb.wrAccesses              287148                       # TLB accesses on write requests
system.switch_cpus.dtb.wrMisses                   595                       # TLB misses on write requests
system.switch_cpus.fetch.Branches             1329202                       # Number of branches that fetch encountered
system.switch_cpus.fetch.CacheLines           1492866                       # Number of cache lines fetched
system.switch_cpus.fetch.Cycles              15717116                       # Number of cycles fetch has run and was not squashing or blocked
system.switch_cpus.fetch.IcacheSquashes         12481                       # Number of outstanding Icache misses that were squashed
system.switch_cpus.fetch.Insts               12402076                       # Number of instructions fetch has processed
system.switch_cpus.fetch.MiscStallCycles           65                       # Number of cycles fetch has spent waiting on interrupts, or bad addresses, or out of MSHRs
system.switch_cpus.fetch.PendingTrapStallCycles         1840                       # Number of stall cycles due to pending traps
system.switch_cpus.fetch.SquashCycles          121932                       # Number of cycles fetch has spent squashing
system.switch_cpus.fetch.branchRate          0.076623                       # Number of branch fetches per cycle
system.switch_cpus.fetch.icacheStallCycles      1537254                       # Number of cycles fetch is stalled on an Icache miss
system.switch_cpus.fetch.predictedBranches       977296                       # Number of branches that fetch has predicted taken
system.switch_cpus.fetch.rate                0.714927                       # Number of inst fetches per cycle
system.switch_cpus.fetch.rateDist::samples     17317241                       # Number of instructions fetched each cycle (Total)
system.switch_cpus.fetch.rateDist::mean      1.200518                       # Number of instructions fetched each cycle (Total)
system.switch_cpus.fetch.rateDist::stdev     2.614568                       # Number of instructions fetched each cycle (Total)
system.switch_cpus.fetch.rateDist::underflows            0      0.00%      0.00% # Number of instructions fetched each cycle (Total)
system.switch_cpus.fetch.rateDist::0         13781472     79.58%     79.58% # Number of instructions fetched each cycle (Total)
system.switch_cpus.fetch.rateDist::1           311839      1.80%     81.38% # Number of instructions fetched each cycle (Total)
system.switch_cpus.fetch.rateDist::2           186684      1.08%     82.46% # Number of instructions fetched each cycle (Total)
system.switch_cpus.fetch.rateDist::3           216150      1.25%     83.71% # Number of instructions fetched each cycle (Total)
system.switch_cpus.fetch.rateDist::4           328830      1.90%     85.61% # Number of instructions fetched each cycle (Total)
system.switch_cpus.fetch.rateDist::5           277996      1.61%     87.21% # Number of instructions fetched each cycle (Total)
system.switch_cpus.fetch.rateDist::6           430963      2.49%     89.70% # Number of instructions fetched each cycle (Total)
system.switch_cpus.fetch.rateDist::7           101536      0.59%     90.29% # Number of instructions fetched each cycle (Total)
system.switch_cpus.fetch.rateDist::8          1681771      9.71%    100.00% # Number of instructions fetched each cycle (Total)
system.switch_cpus.fetch.rateDist::overflows            0      0.00%    100.00% # Number of instructions fetched each cycle (Total)
system.switch_cpus.fetch.rateDist::min_value            0                       # Number of instructions fetched each cycle (Total)
system.switch_cpus.fetch.rateDist::max_value            8                       # Number of instructions fetched each cycle (Total)
system.switch_cpus.fetch.rateDist::total     17317241                       # Number of instructions fetched each cycle (Total)
system.switch_cpus.fp_regfile_reads          16021945                       # number of floating regfile reads
system.switch_cpus.fp_regfile_writes          9303910                       # number of floating regfile writes
system.switch_cpus.idleCycles                   30091                       # Total number of cycles that the CPU has spent unscheduled due to idling
system.switch_cpus.iew.branchMispredicts        67808                       # Number of branch mispredicts detected at execute
system.switch_cpus.iew.exec_branches          1088227                       # Number of branches executed
system.switch_cpus.iew.exec_nop                     0                       # number of nop insts executed
system.switch_cpus.iew.exec_rate             1.045549                       # Inst execution rate
system.switch_cpus.iew.exec_refs              3336804                       # number of memory reference insts executed
system.switch_cpus.iew.exec_stores             287138                       # Number of stores executed
system.switch_cpus.iew.exec_swp                     0                       # number of swp insts executed
system.switch_cpus.iew.iewBlockCycles         7401648                       # Number of cycles IEW is blocking
system.switch_cpus.iew.iewDispLoadInsts       3072644                       # Number of dispatched load instructions
system.switch_cpus.iew.iewDispNonSpecInsts            0                       # Number of dispatched non-speculative instructions
system.switch_cpus.iew.iewDispSquashedInsts         5015                       # Number of squashed instructions skipped by dispatch
system.switch_cpus.iew.iewDispStoreInsts       323692                       # Number of dispatched store instructions
system.switch_cpus.iew.iewDispatchedInsts     18905917                       # Number of instructions dispatched to IQ
system.switch_cpus.iew.iewExecLoadInsts       3049666                       # Number of load instructions executed
system.switch_cpus.iew.iewExecSquashedInsts       111243                       # Number of squashed instructions skipped in execute
system.switch_cpus.iew.iewExecutedInsts      18137477                       # Number of executed instructions
system.switch_cpus.iew.iewIQFullEvents          79914                       # Number of times the IQ has become full, causing a stall
system.switch_cpus.iew.iewIdleCycles                0                       # Number of cycles IEW is idle
system.switch_cpus.iew.iewLSQFullEvents        715447                       # Number of times the LSQ has become full, causing a stall
system.switch_cpus.iew.iewSquashCycles          60966                       # Number of cycles IEW is squashing
system.switch_cpus.iew.iewUnblockCycles        844096                       # Number of cycles IEW is unblocking
system.switch_cpus.iew.lsq.thread0.blockedLoads            0                       # Number of blocked loads due to partial load-store forwarding
system.switch_cpus.iew.lsq.thread0.cacheBlocked        21252                       # Number of times an access to memory failed due to the cache being blocked
system.switch_cpus.iew.lsq.thread0.forwLoads        37762                       # Number of loads that had data forwarded from stores
system.switch_cpus.iew.lsq.thread0.ignoredResponses          249                       # Number of memory responses ignored because the instruction is squashed
system.switch_cpus.iew.lsq.thread0.invAddrLoads            0                       # Number of loads ignored due to an invalid address
system.switch_cpus.iew.lsq.thread0.invAddrSwpfs            0                       # Number of software prefetches ignored due to an invalid address
system.switch_cpus.iew.lsq.thread0.memOrderViolation          218                       # Number of memory ordering violations
system.switch_cpus.iew.lsq.thread0.rescheduledLoads           32                       # Number of loads that were rescheduled
system.switch_cpus.iew.lsq.thread0.squashedLoads       421533                       # Number of loads squashed
system.switch_cpus.iew.lsq.thread0.squashedStores        65170                       # Number of stores squashed
system.switch_cpus.iew.memOrderViolationEvents          218                       # Number of memory order violations
system.switch_cpus.iew.predictedNotTakenIncorrect        19962                       # Number of branches that were predicted not taken incorrectly
system.switch_cpus.iew.predictedTakenIncorrect        47846                       # Number of branches that were predicted taken incorrectly
system.switch_cpus.iew.wb_consumers          23666118                       # num instructions consuming a value
system.switch_cpus.iew.wb_count              17907591                       # cumulative count of insts written-back
system.switch_cpus.iew.wb_fanout             0.589536                       # average fanout of values written-back
system.switch_cpus.iew.wb_producers          13952025                       # num instructions producing a value
system.switch_cpus.iew.wb_rate               1.032297                       # insts written-back per cycle
system.switch_cpus.iew.wb_sent               17933178                       # cumulative count of insts sent to commit
system.switch_cpus.int_regfile_reads         15405462                       # number of integer regfile reads
system.switch_cpus.int_regfile_writes         7197335                       # number of integer regfile writes
system.switch_cpus.ipc                       0.576458                       # IPC: Instructions Per Cycle
system.switch_cpus.ipc_total                 0.576458                       # IPC: Total IPC of All Threads
system.switch_cpus.iq.FU_type_0::No_OpClass        35448      0.19%      0.19% # Type of FU issued
system.switch_cpus.iq.FU_type_0::IntAlu       8002204     43.85%     44.05% # Type of FU issued
system.switch_cpus.iq.FU_type_0::IntMult           31      0.00%     44.05% # Type of FU issued
system.switch_cpus.iq.FU_type_0::IntDiv            80      0.00%     44.05% # Type of FU issued
system.switch_cpus.iq.FU_type_0::FloatAdd       899343      4.93%     48.97% # Type of FU issued
system.switch_cpus.iq.FU_type_0::FloatCmp            0      0.00%     48.97% # Type of FU issued
system.switch_cpus.iq.FU_type_0::FloatCvt            0      0.00%     48.97% # Type of FU issued
system.switch_cpus.iq.FU_type_0::FloatMult            0      0.00%     48.97% # Type of FU issued
system.switch_cpus.iq.FU_type_0::FloatMultAcc            0      0.00%     48.97% # Type of FU issued
system.switch_cpus.iq.FU_type_0::FloatDiv            0      0.00%     48.97% # Type of FU issued
system.switch_cpus.iq.FU_type_0::FloatMisc            0      0.00%     48.97% # Type of FU issued
system.switch_cpus.iq.FU_type_0::FloatSqrt            0      0.00%     48.97% # Type of FU issued
system.switch_cpus.iq.FU_type_0::SimdAdd            0      0.00%     48.97% # Type of FU issued
system.switch_cpus.iq.FU_type_0::SimdAddAcc            0      0.00%     48.97% # Type of FU issued
system.switch_cpus.iq.FU_type_0::SimdAlu      1537421      8.42%     57.40% # Type of FU issued
system.switch_cpus.iq.FU_type_0::SimdCmp            0      0.00%     57.40% # Type of FU issued
system.switch_cpus.iq.FU_type_0::SimdCvt           14      0.00%     57.40% # Type of FU issued
system.switch_cpus.iq.FU_type_0::SimdMisc        41326      0.23%     57.63% # Type of FU issued
system.switch_cpus.iq.FU_type_0::SimdMult            0      0.00%     57.63% # Type of FU issued
system.switch_cpus.iq.FU_type_0::SimdMultAcc            0      0.00%     57.63% # Type of FU issued
system.switch_cpus.iq.FU_type_0::SimdShift            0      0.00%     57.63% # Type of FU issued
system.switch_cpus.iq.FU_type_0::SimdShiftAcc            0      0.00%     57.63% # Type of FU issued
system.switch_cpus.iq.FU_type_0::SimdDiv            0      0.00%     57.63% # Type of FU issued
system.switch_cpus.iq.FU_type_0::SimdSqrt            0      0.00%     57.63% # Type of FU issued
system.switch_cpus.iq.FU_type_0::SimdFloatAdd      1395117      7.65%     65.27% # Type of FU issued
system.switch_cpus.iq.FU_type_0::SimdFloatAlu            0      0.00%     65.27% # Type of FU issued
system.switch_cpus.iq.FU_type_0::SimdFloatCmp        20121      0.11%     65.38% # Type of FU issued
system.switch_cpus.iq.FU_type_0::SimdFloatCvt      1499104      8.21%     73.60% # Type of FU issued
system.switch_cpus.iq.FU_type_0::SimdFloatDiv            0      0.00%     73.60% # Type of FU issued
system.switch_cpus.iq.FU_type_0::SimdFloatMisc            0      0.00%     73.60% # Type of FU issued
system.switch_cpus.iq.FU_type_0::SimdFloatMult      1436278      7.87%     81.47% # Type of FU issued
system.switch_cpus.iq.FU_type_0::SimdFloatMultAcc            0      0.00%     81.47% # Type of FU issued
system.switch_cpus.iq.FU_type_0::SimdFloatSqrt            0      0.00%     81.47% # Type of FU issued
system.switch_cpus.iq.FU_type_0::SimdReduceAdd            0      0.00%     81.47% # Type of FU issued
system.switch_cpus.iq.FU_type_0::SimdReduceAlu            0      0.00%     81.47% # Type of FU issued
system.switch_cpus.iq.FU_type_0::SimdReduceCmp            0      0.00%     81.47% # Type of FU issued
system.switch_cpus.iq.FU_type_0::SimdFloatReduceAdd            0      0.00%     81.47% # Type of FU issued
system.switch_cpus.iq.FU_type_0::SimdFloatReduceCmp            0      0.00%     81.47% # Type of FU issued
system.switch_cpus.iq.FU_type_0::SimdAes            0      0.00%     81.47% # Type of FU issued
system.switch_cpus.iq.FU_type_0::SimdAesMix            0      0.00%     81.47% # Type of FU issued
system.switch_cpus.iq.FU_type_0::SimdSha1Hash            0      0.00%     81.47% # Type of FU issued
system.switch_cpus.iq.FU_type_0::SimdSha1Hash2            0      0.00%     81.47% # Type of FU issued
system.switch_cpus.iq.FU_type_0::SimdSha256Hash            0      0.00%     81.47% # Type of FU issued
system.switch_cpus.iq.FU_type_0::SimdSha256Hash2            0      0.00%     81.47% # Type of FU issued
system.switch_cpus.iq.FU_type_0::SimdShaSigma2            0      0.00%     81.47% # Type of FU issued
system.switch_cpus.iq.FU_type_0::SimdShaSigma3            0      0.00%     81.47% # Type of FU issued
system.switch_cpus.iq.FU_type_0::SimdPredAlu            0      0.00%     81.47% # Type of FU issued
system.switch_cpus.iq.FU_type_0::MemRead      1078020      5.91%     87.37% # Type of FU issued
system.switch_cpus.iq.FU_type_0::MemWrite       227706      1.25%     88.62% # Type of FU issued
system.switch_cpus.iq.FU_type_0::FloatMemRead      2012499     11.03%     99.65% # Type of FU issued
system.switch_cpus.iq.FU_type_0::FloatMemWrite        64014      0.35%    100.00% # Type of FU issued
system.switch_cpus.iq.FU_type_0::IprAccess            0      0.00%    100.00% # Type of FU issued
system.switch_cpus.iq.FU_type_0::InstPrefetch            0      0.00%    100.00% # Type of FU issued
system.switch_cpus.iq.FU_type_0::total       18248726                       # Type of FU issued
system.switch_cpus.iq.fp_alu_accesses         9749734                       # Number of floating point alu accesses
system.switch_cpus.iq.fp_inst_queue_reads     19318227                       # Number of floating instruction queue reads
system.switch_cpus.iq.fp_inst_queue_wakeup_accesses      9416221                       # Number of floating instruction queue wakeup accesses
system.switch_cpus.iq.fp_inst_queue_writes     10145078                       # Number of floating instruction queue writes
system.switch_cpus.iq.fu_busy_cnt              318452                       # FU busy when requested
system.switch_cpus.iq.fu_busy_rate           0.017451                       # FU busy rate (busy events/executed inst)
system.switch_cpus.iq.fu_full::No_OpClass            0      0.00%      0.00% # attempts to use FU when none available
system.switch_cpus.iq.fu_full::IntAlu          109955     34.53%     34.53% # attempts to use FU when none available
system.switch_cpus.iq.fu_full::IntMult              0      0.00%     34.53% # attempts to use FU when none available
system.switch_cpus.iq.fu_full::IntDiv               0      0.00%     34.53% # attempts to use FU when none available
system.switch_cpus.iq.fu_full::FloatAdd             0      0.00%     34.53% # attempts to use FU when none available
system.switch_cpus.iq.fu_full::FloatCmp             0      0.00%     34.53% # attempts to use FU when none available
system.switch_cpus.iq.fu_full::FloatCvt             0      0.00%     34.53% # attempts to use FU when none available
system.switch_cpus.iq.fu_full::FloatMult            0      0.00%     34.53% # attempts to use FU when none available
system.switch_cpus.iq.fu_full::FloatMultAcc            0      0.00%     34.53% # attempts to use FU when none available
system.switch_cpus.iq.fu_full::FloatDiv             0      0.00%     34.53% # attempts to use FU when none available
system.switch_cpus.iq.fu_full::FloatMisc            0      0.00%     34.53% # attempts to use FU when none available
system.switch_cpus.iq.fu_full::FloatSqrt            0      0.00%     34.53% # attempts to use FU when none available
system.switch_cpus.iq.fu_full::SimdAdd              0      0.00%     34.53% # attempts to use FU when none available
system.switch_cpus.iq.fu_full::SimdAddAcc            0      0.00%     34.53% # attempts to use FU when none available
system.switch_cpus.iq.fu_full::SimdAlu          52063     16.35%     50.88% # attempts to use FU when none available
system.switch_cpus.iq.fu_full::SimdCmp              0      0.00%     50.88% # attempts to use FU when none available
system.switch_cpus.iq.fu_full::SimdCvt              0      0.00%     50.88% # attempts to use FU when none available
system.switch_cpus.iq.fu_full::SimdMisc             0      0.00%     50.88% # attempts to use FU when none available
system.switch_cpus.iq.fu_full::SimdMult             0      0.00%     50.88% # attempts to use FU when none available
system.switch_cpus.iq.fu_full::SimdMultAcc            0      0.00%     50.88% # attempts to use FU when none available
system.switch_cpus.iq.fu_full::SimdShift            0      0.00%     50.88% # attempts to use FU when none available
system.switch_cpus.iq.fu_full::SimdShiftAcc            0      0.00%     50.88% # attempts to use FU when none available
system.switch_cpus.iq.fu_full::SimdDiv              0      0.00%     50.88% # attempts to use FU when none available
system.switch_cpus.iq.fu_full::SimdSqrt             0      0.00%     50.88% # attempts to use FU when none available
system.switch_cpus.iq.fu_full::SimdFloatAdd        71277     22.38%     73.26% # attempts to use FU when none available
system.switch_cpus.iq.fu_full::SimdFloatAlu            0      0.00%     73.26% # attempts to use FU when none available
system.switch_cpus.iq.fu_full::SimdFloatCmp            0      0.00%     73.26% # attempts to use FU when none available
system.switch_cpus.iq.fu_full::SimdFloatCvt        19603      6.16%     79.41% # attempts to use FU when none available
system.switch_cpus.iq.fu_full::SimdFloatDiv            0      0.00%     79.41% # attempts to use FU when none available
system.switch_cpus.iq.fu_full::SimdFloatMisc            0      0.00%     79.41% # attempts to use FU when none available
system.switch_cpus.iq.fu_full::SimdFloatMult         4143      1.30%     80.72% # attempts to use FU when none available
system.switch_cpus.iq.fu_full::SimdFloatMultAcc            0      0.00%     80.72% # attempts to use FU when none available
system.switch_cpus.iq.fu_full::SimdFloatSqrt            0      0.00%     80.72% # attempts to use FU when none available
system.switch_cpus.iq.fu_full::SimdReduceAdd            0      0.00%     80.72% # attempts to use FU when none available
system.switch_cpus.iq.fu_full::SimdReduceAlu            0      0.00%     80.72% # attempts to use FU when none available
system.switch_cpus.iq.fu_full::SimdReduceCmp            0      0.00%     80.72% # attempts to use FU when none available
system.switch_cpus.iq.fu_full::SimdFloatReduceAdd            0      0.00%     80.72% # attempts to use FU when none available
system.switch_cpus.iq.fu_full::SimdFloatReduceCmp            0      0.00%     80.72% # attempts to use FU when none available
system.switch_cpus.iq.fu_full::SimdAes              0      0.00%     80.72% # attempts to use FU when none available
system.switch_cpus.iq.fu_full::SimdAesMix            0      0.00%     80.72% # attempts to use FU when none available
system.switch_cpus.iq.fu_full::SimdSha1Hash            0      0.00%     80.72% # attempts to use FU when none available
system.switch_cpus.iq.fu_full::SimdSha1Hash2            0      0.00%     80.72% # attempts to use FU when none available
system.switch_cpus.iq.fu_full::SimdSha256Hash            0      0.00%     80.72% # attempts to use FU when none available
system.switch_cpus.iq.fu_full::SimdSha256Hash2            0      0.00%     80.72% # attempts to use FU when none available
system.switch_cpus.iq.fu_full::SimdShaSigma2            0      0.00%     80.72% # attempts to use FU when none available
system.switch_cpus.iq.fu_full::SimdShaSigma3            0      0.00%     80.72% # attempts to use FU when none available
system.switch_cpus.iq.fu_full::SimdPredAlu            0      0.00%     80.72% # attempts to use FU when none available
system.switch_cpus.iq.fu_full::MemRead          21054      6.61%     87.33% # attempts to use FU when none available
system.switch_cpus.iq.fu_full::MemWrite          4156      1.31%     88.63% # attempts to use FU when none available
system.switch_cpus.iq.fu_full::FloatMemRead        36161     11.36%     99.99% # attempts to use FU when none available
system.switch_cpus.iq.fu_full::FloatMemWrite           40      0.01%    100.00% # attempts to use FU when none available
system.switch_cpus.iq.fu_full::IprAccess            0      0.00%    100.00% # attempts to use FU when none available
system.switch_cpus.iq.fu_full::InstPrefetch            0      0.00%    100.00% # attempts to use FU when none available
system.switch_cpus.iq.int_alu_accesses        8781996                       # Number of integer alu accesses
system.switch_cpus.iq.int_inst_queue_reads     34849326                       # Number of integer instruction queue reads
system.switch_cpus.iq.int_inst_queue_wakeup_accesses      8491370                       # Number of integer instruction queue wakeup accesses
system.switch_cpus.iq.int_inst_queue_writes     10967211                       # Number of integer instruction queue writes
system.switch_cpus.iq.iqInstsAdded           18905917                       # Number of instructions added to the IQ (excludes non-spec)
system.switch_cpus.iq.iqInstsIssued          18248726                       # Number of instructions issued
system.switch_cpus.iq.iqSquashedInstsExamined      2206157                       # Number of squashed instructions iterated over during squash; mainly for profiling
system.switch_cpus.iq.iqSquashedInstsIssued        34414                       # Number of squashed instructions issued
system.switch_cpus.iq.iqSquashedOperandsExamined      3321546                       # Number of squashed operands that are examined and possibly removed from graph
system.switch_cpus.iq.issued_per_cycle::samples     17317241                       # Number of insts issued each cycle
system.switch_cpus.iq.issued_per_cycle::mean     1.053789                       # Number of insts issued each cycle
system.switch_cpus.iq.issued_per_cycle::stdev     1.908877                       # Number of insts issued each cycle
system.switch_cpus.iq.issued_per_cycle::underflows            0      0.00%      0.00% # Number of insts issued each cycle
system.switch_cpus.iq.issued_per_cycle::0     11716037     67.66%     67.66% # Number of insts issued each cycle
system.switch_cpus.iq.issued_per_cycle::1      1417122      8.18%     75.84% # Number of insts issued each cycle
system.switch_cpus.iq.issued_per_cycle::2      1061793      6.13%     81.97% # Number of insts issued each cycle
system.switch_cpus.iq.issued_per_cycle::3       885697      5.11%     87.08% # Number of insts issued each cycle
system.switch_cpus.iq.issued_per_cycle::4       756805      4.37%     91.45% # Number of insts issued each cycle
system.switch_cpus.iq.issued_per_cycle::5       531418      3.07%     94.52% # Number of insts issued each cycle
system.switch_cpus.iq.issued_per_cycle::6       455292      2.63%     97.15% # Number of insts issued each cycle
system.switch_cpus.iq.issued_per_cycle::7       309751      1.79%     98.94% # Number of insts issued each cycle
system.switch_cpus.iq.issued_per_cycle::8       183326      1.06%    100.00% # Number of insts issued each cycle
system.switch_cpus.iq.issued_per_cycle::overflows            0      0.00%    100.00% # Number of insts issued each cycle
system.switch_cpus.iq.issued_per_cycle::min_value            0                       # Number of insts issued each cycle
system.switch_cpus.iq.issued_per_cycle::max_value            8                       # Number of insts issued each cycle
system.switch_cpus.iq.issued_per_cycle::total     17317241                       # Number of insts issued each cycle
system.switch_cpus.iq.rate                   1.051962                       # Inst issue rate
system.switch_cpus.iq.vec_alu_accesses              0                       # Number of vector alu accesses
system.switch_cpus.iq.vec_inst_queue_reads            0                       # Number of vector instruction queue reads
system.switch_cpus.iq.vec_inst_queue_wakeup_accesses            0                       # Number of vector instruction queue wakeup accesses
system.switch_cpus.iq.vec_inst_queue_writes            0                       # Number of vector instruction queue writes
system.switch_cpus.itb.rdAccesses                   0                       # TLB accesses on read requests
system.switch_cpus.itb.rdMisses                     0                       # TLB misses on read requests
system.switch_cpus.itb.wrAccesses             1493133                       # TLB accesses on write requests
system.switch_cpus.itb.wrMisses                   302                       # TLB misses on write requests
system.switch_cpus.memDep0.conflictingLoads        43971                       # Number of conflicting loads.
system.switch_cpus.memDep0.conflictingStores        16395                       # Number of conflicting stores.
system.switch_cpus.memDep0.insertedLoads      3072644                       # Number of loads inserted to the mem dependence unit.
system.switch_cpus.memDep0.insertedStores       323692                       # Number of stores inserted to the mem dependence unit.
system.switch_cpus.misc_regfile_reads         5603848                       # number of misc regfile reads
system.switch_cpus.misc_regfile_writes              1                       # number of misc regfile writes
system.switch_cpus.numCycles                 17347332                       # number of cpu cycles simulated
system.switch_cpus.numWorkItemsCompleted            0                       # number of work items this cpu completed
system.switch_cpus.numWorkItemsStarted              0                       # number of work items this cpu started
system.switch_cpus.rename.BlockCycles        10699217                       # Number of cycles rename is blocking
system.switch_cpus.rename.CommittedMaps      19126939                       # Number of HB maps that are committed
system.switch_cpus.rename.IQFullEvents        1510479                       # Number of times rename has blocked due to IQ full
system.switch_cpus.rename.IdleCycles          1365871                       # Number of cycles rename is idle
system.switch_cpus.rename.LQFullEvents         385254                       # Number of times rename has blocked due to LQ full
system.switch_cpus.rename.ROBFullEvents        129927                       # Number of times rename has blocked due to ROB full
system.switch_cpus.rename.RenameLookups      47002169                       # Number of register rename lookups that rename has made
system.switch_cpus.rename.RenamedInsts       19359722                       # Number of instructions processed by rename
system.switch_cpus.rename.RenamedOperands     22314989                       # Number of destination operands rename has renamed
system.switch_cpus.rename.RunCycles           2361225                       # Number of cycles rename is running
system.switch_cpus.rename.SQFullEvents         658854                       # Number of times rename has blocked due to SQ full
system.switch_cpus.rename.SquashCycles          60966                       # Number of cycles rename is squashing
system.switch_cpus.rename.UnblockCycles       2829961                       # Number of cycles rename is unblocking
system.switch_cpus.rename.UndoneMaps          3187892                       # Number of HB maps that are undone due to squashing
system.switch_cpus.rename.fp_rename_lookups     16840808                       # Number of floating rename lookups
system.switch_cpus.rename.int_rename_lookups     17036470                       # Number of integer rename lookups
system.switch_cpus.rename.serializeStallCycles            0                       # count of cycles rename stalled for serializing inst
system.switch_cpus.rename.serializingInsts            0                       # count of serializing insts renamed
system.switch_cpus.rename.skidInsts           4551588                       # count of insts added to the skid buffer
system.switch_cpus.rename.tempSerializingInsts            0                       # count of temporary serializing insts renamed
system.switch_cpus.rob.rob_reads             34539044                       # The number of ROB reads
system.switch_cpus.rob.rob_writes            38128029                       # The number of ROB writes
system.switch_cpus.timesIdled                     353                       # Number of times that the entire CPU went into an idle state and unscheduled itself
system.tol2bus.snoop_filter.hit_multi_requests            0                       # Number of requests hitting in the snoop filter with multiple (>1) holders of the requested data.
system.tol2bus.snoop_filter.hit_multi_snoops            0                       # Number of snoops hitting in the snoop filter with multiple (>1) holders of the requested data.
system.tol2bus.snoop_filter.hit_single_requests       183620                       # Number of requests hitting in the snoop filter with a single holder of the requested data.
system.tol2bus.snoop_filter.hit_single_snoops          838                       # Number of snoops hitting in the snoop filter with a single holder of the requested data.
system.tol2bus.snoop_filter.tot_requests       368550                       # Total number of requests made to the snoop filter.
system.tol2bus.snoop_filter.tot_snoops            838                       # Total number of snoops made to the snoop filter.
system.membus.pwrStateResidencyTicks::UNDEFINED 270775953730000                       # Cumulative time (in ticks) in various power states
system.membus.trans_dist::ReadResp             145008                       # Transaction distribution
system.membus.trans_dist::WritebackDirty        15601                       # Transaction distribution
system.membus.trans_dist::CleanEvict           136253                       # Transaction distribution
system.membus.trans_dist::ReadExReq             11230                       # Transaction distribution
system.membus.trans_dist::ReadExResp            11230                       # Transaction distribution
system.membus.trans_dist::ReadSharedReq        145009                       # Transaction distribution
system.membus.pkt_count_system.l2.mem_side::system.mem_ctrls.port       464331                       # Packet count per connected master and slave (bytes)
system.membus.pkt_count_system.l2.mem_side::total       464331                       # Packet count per connected master and slave (bytes)
system.membus.pkt_count::total                 464331                       # Packet count per connected master and slave (bytes)
system.membus.pkt_size_system.l2.mem_side::system.mem_ctrls.port     10997696                       # Cumulative packet size per connected master and slave (bytes)
system.membus.pkt_size_system.l2.mem_side::total     10997696                       # Cumulative packet size per connected master and slave (bytes)
system.membus.pkt_size::total                10997696                       # Cumulative packet size per connected master and slave (bytes)
system.membus.snoops                                0                       # Total snoops (count)
system.membus.snoopTraffic                          0                       # Total snoop traffic (bytes)
system.membus.snoop_fanout::samples            156239                       # Request fanout histogram
system.membus.snoop_fanout::mean                    0                       # Request fanout histogram
system.membus.snoop_fanout::stdev                   0                       # Request fanout histogram
system.membus.snoop_fanout::underflows              0      0.00%      0.00% # Request fanout histogram
system.membus.snoop_fanout::0                  156239    100.00%    100.00% # Request fanout histogram
system.membus.snoop_fanout::1                       0      0.00%    100.00% # Request fanout histogram
system.membus.snoop_fanout::overflows               0      0.00%    100.00% # Request fanout histogram
system.membus.snoop_fanout::min_value               0                       # Request fanout histogram
system.membus.snoop_fanout::max_value               0                       # Request fanout histogram
system.membus.snoop_fanout::total              156239                       # Request fanout histogram
system.membus.reqLayer2.occupancy           402101000                       # Layer occupancy (ticks)
system.membus.reqLayer2.utilization               4.6                       # Layer utilization (%)
system.membus.respLayer1.occupancy          834631750                       # Layer occupancy (ticks)
system.membus.respLayer1.utilization              9.6                       # Layer utilization (%)
system.switch_cpus.pwrStateResidencyTicks::OFF   8673676250                       # Cumulative time (in ticks) in various power states
system.switch_cpus.dtb.walker.pwrStateResidencyTicks::UNDEFINED 270775953730000                       # Cumulative time (in ticks) in various power states
system.switch_cpus.itb.walker.pwrStateResidencyTicks::UNDEFINED 270775953730000                       # Cumulative time (in ticks) in various power states
system.tol2bus.pwrStateResidencyTicks::UNDEFINED 270775953730000                       # Cumulative time (in ticks) in various power states
system.tol2bus.trans_dist::ReadResp            172584                       # Transaction distribution
system.tol2bus.trans_dist::WritebackDirty        41877                       # Transaction distribution
system.tol2bus.trans_dist::WritebackClean          171                       # Transaction distribution
system.tol2bus.trans_dist::CleanEvict          293987                       # Transaction distribution
system.tol2bus.trans_dist::ReadExReq            12345                       # Transaction distribution
system.tol2bus.trans_dist::ReadExResp           12345                       # Transaction distribution
system.tol2bus.trans_dist::ReadCleanReq           456                       # Transaction distribution
system.tol2bus.trans_dist::ReadSharedReq       172129                       # Transaction distribution
system.tol2bus.pkt_count_system.cpu.icache.mem_side::system.l2.cpu_side         1083                       # Packet count per connected master and slave (bytes)
system.tol2bus.pkt_count_system.cpu.dcache.mem_side::system.l2.cpu_side       552396                       # Packet count per connected master and slave (bytes)
system.tol2bus.pkt_count::total                553479                       # Packet count per connected master and slave (bytes)
system.tol2bus.pkt_size_system.cpu.icache.mem_side::system.l2.cpu_side        40128                       # Cumulative packet size per connected master and slave (bytes)
system.tol2bus.pkt_size_system.cpu.dcache.mem_side::system.l2.cpu_side     13487936                       # Cumulative packet size per connected master and slave (bytes)
system.tol2bus.pkt_size::total               13528064                       # Cumulative packet size per connected master and slave (bytes)
system.tol2bus.snoops                          152415                       # Total snoops (count)
system.tol2bus.snoopTraffic                    998464                       # Total snoop traffic (bytes)
system.tol2bus.snoop_fanout::samples           337345                       # Request fanout histogram
system.tol2bus.snoop_fanout::mean            0.002484                       # Request fanout histogram
system.tol2bus.snoop_fanout::stdev           0.049779                       # Request fanout histogram
system.tol2bus.snoop_fanout::underflows             0      0.00%      0.00% # Request fanout histogram
system.tol2bus.snoop_fanout::0                 336507     99.75%     99.75% # Request fanout histogram
system.tol2bus.snoop_fanout::1                    838      0.25%    100.00% # Request fanout histogram
system.tol2bus.snoop_fanout::2                      0      0.00%    100.00% # Request fanout histogram
system.tol2bus.snoop_fanout::3                      0      0.00%    100.00% # Request fanout histogram
system.tol2bus.snoop_fanout::4                      0      0.00%    100.00% # Request fanout histogram
system.tol2bus.snoop_fanout::overflows              0      0.00%    100.00% # Request fanout histogram
system.tol2bus.snoop_fanout::min_value              0                       # Request fanout histogram
system.tol2bus.snoop_fanout::max_value              1                       # Request fanout histogram
system.tol2bus.snoop_fanout::total             337345                       # Request fanout histogram
system.tol2bus.reqLayer0.occupancy          210719500                       # Layer occupancy (ticks)
system.tol2bus.reqLayer0.utilization              2.4                       # Layer utilization (%)
system.tol2bus.respLayer1.occupancy         276705000                       # Layer occupancy (ticks)
system.tol2bus.respLayer1.utilization             3.2                       # Layer utilization (%)
system.tol2bus.respLayer0.occupancy            681499                       # Layer occupancy (ticks)
system.tol2bus.respLayer0.utilization             0.0                       # Layer utilization (%)
system.voltage_domain.voltage                       1                       # Voltage in Volts
system.clk_domain.clock                          1000                       # Clock period in ticks
system.l2.pwrStateResidencyTicks::UNDEFINED 270775953730000                       # Cumulative time (in ticks) in various power states
system.l2.demand_hits::.switch_cpus.inst           31                       # number of demand (read+write) hits
system.l2.demand_hits::.switch_cpus.data        28660                       # number of demand (read+write) hits
system.l2.demand_hits::total                    28691                       # number of demand (read+write) hits
system.l2.overall_hits::.switch_cpus.inst           31                       # number of overall hits
system.l2.overall_hits::.switch_cpus.data        28660                       # number of overall hits
system.l2.overall_hits::total                   28691                       # number of overall hits
system.l2.demand_misses::.cpu.inst                  2                       # number of demand (read+write) misses
system.l2.demand_misses::.cpu.data                  3                       # number of demand (read+write) misses
system.l2.demand_misses::.switch_cpus.inst          423                       # number of demand (read+write) misses
system.l2.demand_misses::.switch_cpus.data       155811                       # number of demand (read+write) misses
system.l2.demand_misses::total                 156239                       # number of demand (read+write) misses
system.l2.overall_misses::.cpu.inst                 2                       # number of overall misses
system.l2.overall_misses::.cpu.data                 3                       # number of overall misses
system.l2.overall_misses::.switch_cpus.inst          423                       # number of overall misses
system.l2.overall_misses::.switch_cpus.data       155811                       # number of overall misses
system.l2.overall_misses::total                156239                       # number of overall misses
system.l2.demand_miss_latency::.switch_cpus.inst     36912000                       # number of demand (read+write) miss cycles
system.l2.demand_miss_latency::.switch_cpus.data  12735831500                       # number of demand (read+write) miss cycles
system.l2.demand_miss_latency::total      12772743500                       # number of demand (read+write) miss cycles
system.l2.overall_miss_latency::.switch_cpus.inst     36912000                       # number of overall miss cycles
system.l2.overall_miss_latency::.switch_cpus.data  12735831500                       # number of overall miss cycles
system.l2.overall_miss_latency::total     12772743500                       # number of overall miss cycles
system.l2.demand_accesses::.cpu.inst                2                       # number of demand (read+write) accesses
system.l2.demand_accesses::.cpu.data                3                       # number of demand (read+write) accesses
system.l2.demand_accesses::.switch_cpus.inst          454                       # number of demand (read+write) accesses
system.l2.demand_accesses::.switch_cpus.data       184471                       # number of demand (read+write) accesses
system.l2.demand_accesses::total               184930                       # number of demand (read+write) accesses
system.l2.overall_accesses::.cpu.inst               2                       # number of overall (read+write) accesses
system.l2.overall_accesses::.cpu.data               3                       # number of overall (read+write) accesses
system.l2.overall_accesses::.switch_cpus.inst          454                       # number of overall (read+write) accesses
system.l2.overall_accesses::.switch_cpus.data       184471                       # number of overall (read+write) accesses
system.l2.overall_accesses::total              184930                       # number of overall (read+write) accesses
system.l2.demand_miss_rate::.cpu.inst               1                       # miss rate for demand accesses
system.l2.demand_miss_rate::.cpu.data               1                       # miss rate for demand accesses
system.l2.demand_miss_rate::.switch_cpus.inst     0.931718                       # miss rate for demand accesses
system.l2.demand_miss_rate::.switch_cpus.data     0.844637                       # miss rate for demand accesses
system.l2.demand_miss_rate::total            0.844855                       # miss rate for demand accesses
system.l2.overall_miss_rate::.cpu.inst              1                       # miss rate for overall accesses
system.l2.overall_miss_rate::.cpu.data              1                       # miss rate for overall accesses
system.l2.overall_miss_rate::.switch_cpus.inst     0.931718                       # miss rate for overall accesses
system.l2.overall_miss_rate::.switch_cpus.data     0.844637                       # miss rate for overall accesses
system.l2.overall_miss_rate::total           0.844855                       # miss rate for overall accesses
system.l2.demand_avg_miss_latency::.switch_cpus.inst 87262.411348                       # average overall miss latency
system.l2.demand_avg_miss_latency::.switch_cpus.data 81738.975425                       # average overall miss latency
system.l2.demand_avg_miss_latency::total 81751.313692                       # average overall miss latency
system.l2.overall_avg_miss_latency::.switch_cpus.inst 87262.411348                       # average overall miss latency
system.l2.overall_avg_miss_latency::.switch_cpus.data 81738.975425                       # average overall miss latency
system.l2.overall_avg_miss_latency::total 81751.313692                       # average overall miss latency
system.l2.blocked_cycles::no_mshrs                  0                       # number of cycles access was blocked
system.l2.blocked_cycles::no_targets                0                       # number of cycles access was blocked
system.l2.blocked::no_mshrs                         0                       # number of cycles access was blocked
system.l2.blocked::no_targets                       0                       # number of cycles access was blocked
system.l2.avg_blocked_cycles::no_mshrs            nan                       # average number of cycles each access was blocked
system.l2.avg_blocked_cycles::no_targets          nan                       # average number of cycles each access was blocked
system.l2.writebacks::.writebacks               15601                       # number of writebacks
system.l2.writebacks::total                     15601                       # number of writebacks
system.l2.demand_mshr_misses::.switch_cpus.inst          423                       # number of demand (read+write) MSHR misses
system.l2.demand_mshr_misses::.switch_cpus.data       155811                       # number of demand (read+write) MSHR misses
system.l2.demand_mshr_misses::total            156234                       # number of demand (read+write) MSHR misses
system.l2.overall_mshr_misses::.switch_cpus.inst          423                       # number of overall MSHR misses
system.l2.overall_mshr_misses::.switch_cpus.data       155811                       # number of overall MSHR misses
system.l2.overall_mshr_misses::total           156234                       # number of overall MSHR misses
system.l2.demand_mshr_miss_latency::.switch_cpus.inst     32682000                       # number of demand (read+write) MSHR miss cycles
system.l2.demand_mshr_miss_latency::.switch_cpus.data  11177731500                       # number of demand (read+write) MSHR miss cycles
system.l2.demand_mshr_miss_latency::total  11210413500                       # number of demand (read+write) MSHR miss cycles
system.l2.overall_mshr_miss_latency::.switch_cpus.inst     32682000                       # number of overall MSHR miss cycles
system.l2.overall_mshr_miss_latency::.switch_cpus.data  11177731500                       # number of overall MSHR miss cycles
system.l2.overall_mshr_miss_latency::total  11210413500                       # number of overall MSHR miss cycles
system.l2.demand_mshr_miss_rate::.switch_cpus.inst     0.931718                       # mshr miss rate for demand accesses
system.l2.demand_mshr_miss_rate::.switch_cpus.data     0.844637                       # mshr miss rate for demand accesses
system.l2.demand_mshr_miss_rate::total       0.844828                       # mshr miss rate for demand accesses
system.l2.overall_mshr_miss_rate::.switch_cpus.inst     0.931718                       # mshr miss rate for overall accesses
system.l2.overall_mshr_miss_rate::.switch_cpus.data     0.844637                       # mshr miss rate for overall accesses
system.l2.overall_mshr_miss_rate::total      0.844828                       # mshr miss rate for overall accesses
system.l2.demand_avg_mshr_miss_latency::.switch_cpus.inst 77262.411348                       # average overall mshr miss latency
system.l2.demand_avg_mshr_miss_latency::.switch_cpus.data 71739.039606                       # average overall mshr miss latency
system.l2.demand_avg_mshr_miss_latency::total 71753.994009                       # average overall mshr miss latency
system.l2.overall_avg_mshr_miss_latency::.switch_cpus.inst 77262.411348                       # average overall mshr miss latency
system.l2.overall_avg_mshr_miss_latency::.switch_cpus.data 71739.039606                       # average overall mshr miss latency
system.l2.overall_avg_mshr_miss_latency::total 71753.994009                       # average overall mshr miss latency
system.l2.replacements                         152415                       # number of replacements
system.l2.WritebackDirty_hits::.writebacks        26276                       # number of WritebackDirty hits
system.l2.WritebackDirty_hits::total            26276                       # number of WritebackDirty hits
system.l2.WritebackDirty_accesses::.writebacks        26276                       # number of WritebackDirty accesses(hits+misses)
system.l2.WritebackDirty_accesses::total        26276                       # number of WritebackDirty accesses(hits+misses)
system.l2.WritebackClean_hits::.writebacks          171                       # number of WritebackClean hits
system.l2.WritebackClean_hits::total              171                       # number of WritebackClean hits
system.l2.WritebackClean_accesses::.writebacks          171                       # number of WritebackClean accesses(hits+misses)
system.l2.WritebackClean_accesses::total          171                       # number of WritebackClean accesses(hits+misses)
system.l2.CleanEvict_mshr_misses::.writebacks          277                       # number of CleanEvict MSHR misses
system.l2.CleanEvict_mshr_misses::total           277                       # number of CleanEvict MSHR misses
system.l2.CleanEvict_mshr_miss_rate::.writebacks          inf                       # mshr miss rate for CleanEvict accesses
system.l2.CleanEvict_mshr_miss_rate::total          inf                       # mshr miss rate for CleanEvict accesses
system.l2.ReadExReq_hits::.switch_cpus.data         1115                       # number of ReadExReq hits
system.l2.ReadExReq_hits::total                  1115                       # number of ReadExReq hits
system.l2.ReadExReq_misses::.cpu.data               1                       # number of ReadExReq misses
system.l2.ReadExReq_misses::.switch_cpus.data        11229                       # number of ReadExReq misses
system.l2.ReadExReq_misses::total               11230                       # number of ReadExReq misses
system.l2.ReadExReq_miss_latency::.switch_cpus.data    896308500                       # number of ReadExReq miss cycles
system.l2.ReadExReq_miss_latency::total     896308500                       # number of ReadExReq miss cycles
system.l2.ReadExReq_accesses::.cpu.data             1                       # number of ReadExReq accesses(hits+misses)
system.l2.ReadExReq_accesses::.switch_cpus.data        12344                       # number of ReadExReq accesses(hits+misses)
system.l2.ReadExReq_accesses::total             12345                       # number of ReadExReq accesses(hits+misses)
system.l2.ReadExReq_miss_rate::.cpu.data            1                       # miss rate for ReadExReq accesses
system.l2.ReadExReq_miss_rate::.switch_cpus.data     0.909673                       # miss rate for ReadExReq accesses
system.l2.ReadExReq_miss_rate::total         0.909680                       # miss rate for ReadExReq accesses
system.l2.ReadExReq_avg_miss_latency::.switch_cpus.data 79820.865616                       # average ReadExReq miss latency
system.l2.ReadExReq_avg_miss_latency::total 79813.757792                       # average ReadExReq miss latency
system.l2.ReadExReq_mshr_misses::.switch_cpus.data        11229                       # number of ReadExReq MSHR misses
system.l2.ReadExReq_mshr_misses::total          11229                       # number of ReadExReq MSHR misses
system.l2.ReadExReq_mshr_miss_latency::.switch_cpus.data    784018500                       # number of ReadExReq MSHR miss cycles
system.l2.ReadExReq_mshr_miss_latency::total    784018500                       # number of ReadExReq MSHR miss cycles
system.l2.ReadExReq_mshr_miss_rate::.switch_cpus.data     0.909673                       # mshr miss rate for ReadExReq accesses
system.l2.ReadExReq_mshr_miss_rate::total     0.909599                       # mshr miss rate for ReadExReq accesses
system.l2.ReadExReq_avg_mshr_miss_latency::.switch_cpus.data 69820.865616                       # average ReadExReq mshr miss latency
system.l2.ReadExReq_avg_mshr_miss_latency::total 69820.865616                       # average ReadExReq mshr miss latency
system.l2.ReadCleanReq_hits::.switch_cpus.inst           31                       # number of ReadCleanReq hits
system.l2.ReadCleanReq_hits::total                 31                       # number of ReadCleanReq hits
system.l2.ReadCleanReq_misses::.cpu.inst            2                       # number of ReadCleanReq misses
system.l2.ReadCleanReq_misses::.switch_cpus.inst          423                       # number of ReadCleanReq misses
system.l2.ReadCleanReq_misses::total              425                       # number of ReadCleanReq misses
system.l2.ReadCleanReq_miss_latency::.switch_cpus.inst     36912000                       # number of ReadCleanReq miss cycles
system.l2.ReadCleanReq_miss_latency::total     36912000                       # number of ReadCleanReq miss cycles
system.l2.ReadCleanReq_accesses::.cpu.inst            2                       # number of ReadCleanReq accesses(hits+misses)
system.l2.ReadCleanReq_accesses::.switch_cpus.inst          454                       # number of ReadCleanReq accesses(hits+misses)
system.l2.ReadCleanReq_accesses::total            456                       # number of ReadCleanReq accesses(hits+misses)
system.l2.ReadCleanReq_miss_rate::.cpu.inst            1                       # miss rate for ReadCleanReq accesses
system.l2.ReadCleanReq_miss_rate::.switch_cpus.inst     0.931718                       # miss rate for ReadCleanReq accesses
system.l2.ReadCleanReq_miss_rate::total      0.932018                       # miss rate for ReadCleanReq accesses
system.l2.ReadCleanReq_avg_miss_latency::.switch_cpus.inst 87262.411348                       # average ReadCleanReq miss latency
[...]
system.cpu.itb.walker.pwrStateResidencyTicks::UNDEFINED 270802128356000                       # Cumulative time (in ticks) in various power states
system.cpu.dtb_walker_cache.pwrStateResidencyTicks::UNDEFINED 270802128356000                       # Cumulative time (in ticks) in various power states
system.cpu.dtb_walker_cache.blocked_cycles::no_mshrs            0                       # number of cycles access was blocked
system.cpu.dtb_walker_cache.blocked_cycles::no_targets            0                       # number of cycles access was blocked
system.cpu.dtb_walker_cache.blocked::no_mshrs            0                       # number of cycles access was blocked
system.cpu.dtb_walker_cache.blocked::no_targets            0                       # number of cycles access was blocked
system.cpu.dtb_walker_cache.avg_blocked_cycles::no_mshrs          nan                       # average number of cycles each access was blocked
system.cpu.dtb_walker_cache.avg_blocked_cycles::no_targets          nan                       # average number of cycles each access was blocked
system.cpu.dtb_walker_cache.replacements            0                       # number of replacements
system.cpu.dtb_walker_cache.tags.pwrStateResidencyTicks::UNDEFINED 270802128356000                       # Cumulative time (in ticks) in various power states
system.cpu.dtb_walker_cache.tags.tagsinuse            0                       # Cycle average of tags in use
system.cpu.dtb_walker_cache.tags.total_refs            0                       # Total number of references to valid blocks.
system.cpu.dtb_walker_cache.tags.sampled_refs            0                       # Sample count of references to valid blocks.
system.cpu.dtb_walker_cache.tags.avg_refs          nan                       # Average number of references to valid blocks.
system.cpu.dtb_walker_cache.tags.warmup_cycle            0                       # Cycle when the warmup percentage was hit.
system.cpu.dtb_walker_cache.tags.tag_accesses            0                       # Number of tag accesses
system.cpu.dtb_walker_cache.tags.data_accesses            0                       # Number of data accesses
system.cpu.dcache.pwrStateResidencyTicks::UNDEFINED 270802128356000                       # Cumulative time (in ticks) in various power states
system.cpu.dcache.demand_hits::.cpu.data            3                       # number of demand (read+write) hits
system.cpu.dcache.demand_hits::.switch_cpus.data     10305523                       # number of demand (read+write) hits
system.cpu.dcache.demand_hits::total         10305526                       # number of demand (read+write) hits
system.cpu.dcache.overall_hits::.cpu.data            3                       # number of overall hits
system.cpu.dcache.overall_hits::.switch_cpus.data     10321661                       # number of overall hits
system.cpu.dcache.overall_hits::total        10321664                       # number of overall hits
system.cpu.dcache.demand_misses::.cpu.data            3                       # number of demand (read+write) misses
system.cpu.dcache.demand_misses::.switch_cpus.data      3010010                       # number of demand (read+write) misses
system.cpu.dcache.demand_misses::total        3010013                       # number of demand (read+write) misses
system.cpu.dcache.overall_misses::.cpu.data            3                       # number of overall misses
system.cpu.dcache.overall_misses::.switch_cpus.data      3010268                       # number of overall misses
system.cpu.dcache.overall_misses::total       3010271                       # number of overall misses
system.cpu.dcache.demand_miss_latency::.switch_cpus.data 191157236877                       # number of demand (read+write) miss cycles
system.cpu.dcache.demand_miss_latency::total 191157236877                       # number of demand (read+write) miss cycles
system.cpu.dcache.overall_miss_latency::.switch_cpus.data 191157236877                       # number of overall miss cycles
system.cpu.dcache.overall_miss_latency::total 191157236877                       # number of overall miss cycles
system.cpu.dcache.demand_accesses::.cpu.data            6                       # number of demand (read+write) accesses
system.cpu.dcache.demand_accesses::.switch_cpus.data     13315533                       # number of demand (read+write) accesses
system.cpu.dcache.demand_accesses::total     13315539                       # number of demand (read+write) accesses
system.cpu.dcache.overall_accesses::.cpu.data            6                       # number of overall (read+write) accesses
system.cpu.dcache.overall_accesses::.switch_cpus.data     13331929                       # number of overall (read+write) accesses
system.cpu.dcache.overall_accesses::total     13331935                       # number of overall (read+write) accesses
system.cpu.dcache.demand_miss_rate::.cpu.data     0.500000                       # miss rate for demand accesses
system.cpu.dcache.demand_miss_rate::.switch_cpus.data     0.226053                       # miss rate for demand accesses
system.cpu.dcache.demand_miss_rate::total     0.226053                       # miss rate for demand accesses
system.cpu.dcache.overall_miss_rate::.cpu.data     0.500000                       # miss rate for overall accesses
system.cpu.dcache.overall_miss_rate::.switch_cpus.data     0.225794                       # miss rate for overall accesses
system.cpu.dcache.overall_miss_rate::total     0.225794                       # miss rate for overall accesses
system.cpu.dcache.demand_avg_miss_latency::.switch_cpus.data 63507.176679                       # average overall miss latency
system.cpu.dcache.demand_avg_miss_latency::total 63507.113384                       # average overall miss latency
system.cpu.dcache.overall_avg_miss_latency::.switch_cpus.data 63501.733692                       # average overall miss latency
system.cpu.dcache.overall_avg_miss_latency::total 63501.670407                       # average overall miss latency
system.cpu.dcache.blocked_cycles::no_mshrs      3501910                       # number of cycles access was blocked
system.cpu.dcache.blocked_cycles::no_targets            0                       # number of cycles access was blocked
system.cpu.dcache.blocked::no_mshrs             99628                       # number of cycles access was blocked
system.cpu.dcache.blocked::no_targets               0                       # number of cycles access was blocked
system.cpu.dcache.avg_blocked_cycles::no_mshrs    35.149857                       # average number of cycles each access was blocked
system.cpu.dcache.avg_blocked_cycles::no_targets          nan                       # average number of cycles each access was blocked
system.cpu.dcache.writebacks::.writebacks       102351                       # number of writebacks
system.cpu.dcache.writebacks::total            102351                       # number of writebacks
system.cpu.dcache.demand_mshr_hits::.switch_cpus.data      2255743                       # number of demand (read+write) MSHR hits
system.cpu.dcache.demand_mshr_hits::total      2255743                       # number of demand (read+write) MSHR hits
system.cpu.dcache.overall_mshr_hits::.switch_cpus.data      2255743                       # number of overall MSHR hits
system.cpu.dcache.overall_mshr_hits::total      2255743                       # number of overall MSHR hits
system.cpu.dcache.demand_mshr_misses::.switch_cpus.data       754267                       # number of demand (read+write) MSHR misses
system.cpu.dcache.demand_mshr_misses::total       754267                       # number of demand (read+write) MSHR misses
system.cpu.dcache.overall_mshr_misses::.switch_cpus.data       754426                       # number of overall MSHR misses
system.cpu.dcache.overall_mshr_misses::total       754426                       # number of overall MSHR misses
system.cpu.dcache.demand_mshr_miss_latency::.switch_cpus.data  53827003380                       # number of demand (read+write) MSHR miss cycles
system.cpu.dcache.demand_mshr_miss_latency::total  53827003380                       # number of demand (read+write) MSHR miss cycles
system.cpu.dcache.overall_mshr_miss_latency::.switch_cpus.data  53833947880                       # number of overall MSHR miss cycles
system.cpu.dcache.overall_mshr_miss_latency::total  53833947880                       # number of overall MSHR miss cycles
system.cpu.dcache.demand_mshr_miss_rate::.switch_cpus.data     0.056646                       # mshr miss rate for demand accesses
system.cpu.dcache.demand_mshr_miss_rate::total     0.056646                       # mshr miss rate for demand accesses
system.cpu.dcache.overall_mshr_miss_rate::.switch_cpus.data     0.056588                       # mshr miss rate for overall accesses
system.cpu.dcache.overall_mshr_miss_rate::total     0.056588                       # mshr miss rate for overall accesses
system.cpu.dcache.demand_avg_mshr_miss_latency::.switch_cpus.data 71363.328079                       # average overall mshr miss latency
system.cpu.dcache.demand_avg_mshr_miss_latency::total 71363.328079                       # average overall mshr miss latency
system.cpu.dcache.overall_avg_mshr_miss_latency::.switch_cpus.data 71357.492822                       # average overall mshr miss latency
system.cpu.dcache.overall_avg_mshr_miss_latency::total 71357.492822                       # average overall mshr miss latency
system.cpu.dcache.replacements                 753404                       # number of replacements
system.cpu.dcache.ReadReq_hits::.cpu.data            3                       # number of ReadReq hits
system.cpu.dcache.ReadReq_hits::.switch_cpus.data      9102468                       # number of ReadReq hits
system.cpu.dcache.ReadReq_hits::total         9102471                       # number of ReadReq hits
system.cpu.dcache.ReadReq_misses::.cpu.data            2                       # number of ReadReq misses
system.cpu.dcache.ReadReq_misses::.switch_cpus.data      2963472                       # number of ReadReq misses
system.cpu.dcache.ReadReq_misses::total       2963474                       # number of ReadReq misses
system.cpu.dcache.ReadReq_miss_latency::.switch_cpus.data 187714107500                       # number of ReadReq miss cycles
system.cpu.dcache.ReadReq_miss_latency::total 187714107500                       # number of ReadReq miss cycles
system.cpu.dcache.ReadReq_accesses::.cpu.data            5                       # number of ReadReq accesses(hits+misses)
system.cpu.dcache.ReadReq_accesses::.switch_cpus.data     12065940                       # number of ReadReq accesses(hits+misses)
system.cpu.dcache.ReadReq_accesses::total     12065945                       # number of ReadReq accesses(hits+misses)
system.cpu.dcache.ReadReq_miss_rate::.cpu.data     0.400000                       # miss rate for ReadReq accesses
system.cpu.dcache.ReadReq_miss_rate::.switch_cpus.data     0.245606                       # miss rate for ReadReq accesses
system.cpu.dcache.ReadReq_miss_rate::total     0.245606                       # miss rate for ReadReq accesses
system.cpu.dcache.ReadReq_avg_miss_latency::.switch_cpus.data 63342.629018                       # average ReadReq miss latency
system.cpu.dcache.ReadReq_avg_miss_latency::total 63342.586269                       # average ReadReq miss latency
system.cpu.dcache.ReadReq_mshr_hits::.switch_cpus.data      2255513                       # number of ReadReq MSHR hits
system.cpu.dcache.ReadReq_mshr_hits::total      2255513                       # number of ReadReq MSHR hits
system.cpu.dcache.ReadReq_mshr_misses::.switch_cpus.data       707959                       # number of ReadReq MSHR misses
system.cpu.dcache.ReadReq_mshr_misses::total       707959                       # number of ReadReq MSHR misses
system.cpu.dcache.ReadReq_mshr_miss_latency::.switch_cpus.data  50439622500                       # number of ReadReq MSHR miss cycles
system.cpu.dcache.ReadReq_mshr_miss_latency::total  50439622500                       # number of ReadReq MSHR miss cycles
system.cpu.dcache.ReadReq_mshr_miss_rate::.switch_cpus.data     0.058674                       # mshr miss rate for ReadReq accesses
system.cpu.dcache.ReadReq_mshr_miss_rate::total     0.058674                       # mshr miss rate for ReadReq accesses
system.cpu.dcache.ReadReq_avg_mshr_miss_latency::.switch_cpus.data 71246.530519                       # average ReadReq mshr miss latency
system.cpu.dcache.ReadReq_avg_mshr_miss_latency::total 71246.530519                       # average ReadReq mshr miss latency
system.cpu.dcache.WriteReq_hits::.switch_cpus.data      1203055                       # number of WriteReq hits
system.cpu.dcache.WriteReq_hits::total        1203055                       # number of WriteReq hits
system.cpu.dcache.WriteReq_misses::.cpu.data            1                       # number of WriteReq misses
system.cpu.dcache.WriteReq_misses::.switch_cpus.data        46538                       # number of WriteReq misses
system.cpu.dcache.WriteReq_misses::total        46539                       # number of WriteReq misses
system.cpu.dcache.WriteReq_miss_latency::.switch_cpus.data   3443129377                       # number of WriteReq miss cycles
system.cpu.dcache.WriteReq_miss_latency::total   3443129377                       # number of WriteReq miss cycles
system.cpu.dcache.WriteReq_accesses::.cpu.data            1                       # number of WriteReq accesses(hits+misses)
system.cpu.dcache.WriteReq_accesses::.switch_cpus.data      1249593                       # number of WriteReq accesses(hits+misses)
system.cpu.dcache.WriteReq_accesses::total      1249594                       # number of WriteReq accesses(hits+misses)
system.cpu.dcache.WriteReq_miss_rate::.cpu.data            1                       # miss rate for WriteReq accesses
system.cpu.dcache.WriteReq_miss_rate::.switch_cpus.data     0.037243                       # miss rate for WriteReq accesses
system.cpu.dcache.WriteReq_miss_rate::total     0.037243                       # miss rate for WriteReq accesses
system.cpu.dcache.WriteReq_avg_miss_latency::.switch_cpus.data 73985.331922                       # average WriteReq miss latency
system.cpu.dcache.WriteReq_avg_miss_latency::total 73983.742173                       # average WriteReq miss latency
system.cpu.dcache.WriteReq_mshr_hits::.switch_cpus.data          230                       # number of WriteReq MSHR hits
system.cpu.dcache.WriteReq_mshr_hits::total          230                       # number of WriteReq MSHR hits
system.cpu.dcache.WriteReq_mshr_misses::.switch_cpus.data        46308                       # number of WriteReq MSHR misses
system.cpu.dcache.WriteReq_mshr_misses::total        46308                       # number of WriteReq MSHR misses
system.cpu.dcache.WriteReq_mshr_miss_latency::.switch_cpus.data   3387380880                       # number of WriteReq MSHR miss cycles
system.cpu.dcache.WriteReq_mshr_miss_latency::total   3387380880                       # number of WriteReq MSHR miss cycles
system.cpu.dcache.WriteReq_mshr_miss_rate::.switch_cpus.data     0.037058                       # mshr miss rate for WriteReq accesses
system.cpu.dcache.WriteReq_mshr_miss_rate::total     0.037058                       # mshr miss rate for WriteReq accesses
system.cpu.dcache.WriteReq_avg_mshr_miss_latency::.switch_cpus.data 73148.934957                       # average WriteReq mshr miss latency
system.cpu.dcache.WriteReq_avg_mshr_miss_latency::total 73148.934957                       # average WriteReq mshr miss latency
system.cpu.dcache.SoftPFReq_hits::.switch_cpus.data        16138                       # number of SoftPFReq hits
system.cpu.dcache.SoftPFReq_hits::total         16138                       # number of SoftPFReq hits
system.cpu.dcache.SoftPFReq_misses::.switch_cpus.data          258                       # number of SoftPFReq misses
system.cpu.dcache.SoftPFReq_misses::total          258                       # number of SoftPFReq misses
system.cpu.dcache.SoftPFReq_accesses::.switch_cpus.data        16396                       # number of SoftPFReq accesses(hits+misses)
system.cpu.dcache.SoftPFReq_accesses::total        16396                       # number of SoftPFReq accesses(hits+misses)
system.cpu.dcache.SoftPFReq_miss_rate::.switch_cpus.data     0.015736                       # miss rate for SoftPFReq accesses
system.cpu.dcache.SoftPFReq_miss_rate::total     0.015736                       # miss rate for SoftPFReq accesses
system.cpu.dcache.SoftPFReq_mshr_misses::.switch_cpus.data          159                       # number of SoftPFReq MSHR misses
system.cpu.dcache.SoftPFReq_mshr_misses::total          159                       # number of SoftPFReq MSHR misses
system.cpu.dcache.SoftPFReq_mshr_miss_latency::.switch_cpus.data      6944500                       # number of SoftPFReq MSHR miss cycles
system.cpu.dcache.SoftPFReq_mshr_miss_latency::total      6944500                       # number of SoftPFReq MSHR miss cycles
system.cpu.dcache.SoftPFReq_mshr_miss_rate::.switch_cpus.data     0.009697                       # mshr miss rate for SoftPFReq accesses
system.cpu.dcache.SoftPFReq_mshr_miss_rate::total     0.009697                       # mshr miss rate for SoftPFReq accesses
system.cpu.dcache.SoftPFReq_avg_mshr_miss_latency::.switch_cpus.data 43676.100629                       # average SoftPFReq mshr miss latency
system.cpu.dcache.SoftPFReq_avg_mshr_miss_latency::total 43676.100629                       # average SoftPFReq mshr miss latency
system.cpu.dcache.tags.pwrStateResidencyTicks::UNDEFINED 270802128356000                       # Cumulative time (in ticks) in various power states
system.cpu.dcache.tags.tagsinuse             0.131653                       # Cycle average of tags in use
system.cpu.dcache.tags.total_refs            11076092                       # Total number of references to valid blocks.
system.cpu.dcache.tags.sampled_refs            754428                       # Sample count of references to valid blocks.
system.cpu.dcache.tags.avg_refs             14.681443                       # Average number of references to valid blocks.
system.cpu.dcache.tags.warmup_cycle      270767280054500                       # Cycle when the warmup percentage was hit.
system.cpu.dcache.tags.occ_blocks::.cpu.data     0.000002                       # Average occupied blocks per requestor
system.cpu.dcache.tags.occ_blocks::.switch_cpus.data     0.131650                       # Average occupied blocks per requestor
system.cpu.dcache.tags.occ_percent::.cpu.data     0.000000                       # Average percentage of cache occupancy
system.cpu.dcache.tags.occ_percent::.switch_cpus.data     0.000129                       # Average percentage of cache occupancy
system.cpu.dcache.tags.occ_percent::total     0.000129                       # Average percentage of cache occupancy
system.cpu.dcache.tags.occ_task_id_blocks::1024         1024                       # Occupied blocks per task id
system.cpu.dcache.tags.age_task_id_blocks_1024::0          207                       # Occupied blocks per task id
system.cpu.dcache.tags.age_task_id_blocks_1024::1          814                       # Occupied blocks per task id
system.cpu.dcache.tags.age_task_id_blocks_1024::3            3                       # Occupied blocks per task id
system.cpu.dcache.tags.occ_task_id_percent::1024            1                       # Percentage of cache occupancy per task id
system.cpu.dcache.tags.tag_accesses          27418298                       # Number of tag accesses
system.cpu.dcache.tags.data_accesses         27418298                       # Number of data accesses

---------- End Simulation Statistics   ----------
