
---------- Begin Simulation Statistics ----------
final_tick                               359103975005500                       # Number of ticks from beginning of simulation (restored from checkpoints and never reset)
host_inst_rate                                  48240                       # Simulator instruction rate (inst/s)
host_mem_usage                                 806136                       # Number of bytes of host memory used
host_op_rate                                    81411                       # Simulator op (including micro ops) rate (op/s)
host_seconds                                   207.30                       # Real time elapsed on the host
host_tick_rate                               45669156                       # Simulator tick rate (ticks/s)
sim_freq                                 1000000000000                       # Frequency of simulated ticks
sim_insts                                    10000009                       # Number of instructions simulated
sim_ops                                      16876344                       # Number of ops (including micro ops) simulated
sim_seconds                                  0.009467                       # Number of seconds simulated
sim_ticks                                  9467165500                       # Number of ticks simulated
system.cpu.Branches                                 1                       # Number of branches fetched
system.cpu.committedInsts                           8                       # Number of instructions committed
system.cpu.committedOps                            16                       # Number of ops (including micro ops) committed
system.cpu.dtb.rdAccesses                           4                       # TLB accesses on read requests
system.cpu.dtb.rdMisses                             0                       # TLB misses on read requests
system.cpu.dtb.wrAccesses                           0                       # TLB accesses on write requests
system.cpu.dtb.wrMisses                             0                       # TLB misses on write requests
system.cpu.idle_fraction                            0                       # Percentage of idle cycles
system.cpu.itb.rdAccesses                           0                       # TLB accesses on read requests
system.cpu.itb.rdMisses                             0                       # TLB misses on read requests
system.cpu.itb.wrAccesses                          12                       # TLB accesses on write requests
system.cpu.itb.wrMisses                             0                       # TLB misses on write requests
system.cpu.not_idle_fraction                        1                       # Percentage of non-idle cycles
system.cpu.numCycles                               20                       # number of cpu cycles simulated
system.cpu.numWorkItemsCompleted                    0                       # number of work items this cpu completed
system.cpu.numWorkItemsStarted                      0                       # number of work items this cpu started
system.cpu.num_busy_cycles                         20                       # Number of busy cycles
system.cpu.num_cc_register_reads                    5                       # number of times the CC registers were read
system.cpu.num_conditional_control_insts            1                       # number of instructions that are conditional controls
system.cpu.num_fp_alu_accesses                     13                       # Number of float alu accesses
system.cpu.num_fp_insts                            13                       # number of float instructions
system.cpu.num_fp_register_reads                   20                       # number of times the floating registers were read
system.cpu.num_fp_register_writes                  13                       # number of times the floating registers were written
system.cpu.num_func_calls                           0                       # number of times a function call or return occured
system.cpu.num_idle_cycles                          0                       # Number of idle cycles
system.cpu.num_int_alu_accesses                     6                       # Number of integer alu accesses
system.cpu.num_int_insts                            6                       # number of integer instructions
system.cpu.num_int_register_reads                  13                       # number of times the integer registers were read
system.cpu.num_int_register_writes                  2                       # number of times the integer registers were written
system.cpu.num_load_insts                           3                       # Number of load instructions
system.cpu.num_mem_refs                             3                       # number of memory refs
system.cpu.num_store_insts                          0                       # Number of store instructions
system.cpu.num_vec_alu_accesses                     0                       # Number of vector alu accesses
system.cpu.num_vec_insts                            0                       # number of vector instructions
system.cpu.num_vec_register_reads                   0                       # number of times the vector registers were read
system.cpu.num_vec_register_writes                  0                       # number of times the vector registers were written
system.cpu.op_class::No_OpClass                     0      0.00%      0.00% # Class of executed instruction
system.cpu.op_class::IntAlu                         5     31.25%     31.25% # Class of executed instruction
system.cpu.op_class::IntMult                        0      0.00%     31.25% # Class of executed instruction
system.cpu.op_class::IntDiv                         0      0.00%     31.25% # Class of executed instruction
system.cpu.op_class::FloatAdd                       2     12.50%     43.75% # Class of executed instruction
system.cpu.op_class::FloatCmp                       0      0.00%     43.75% # Class of executed instruction
system.cpu.op_class::FloatCvt                       0      0.00%     43.75% # Class of executed instruction
system.cpu.op_class::FloatMult                      0      0.00%     43.75% # Class of executed instruction
system.cpu.op_class::FloatMultAcc                   0      0.00%     43.75% # Class of executed instruction
system.cpu.op_class::FloatDiv                       0      0.00%     43.75% # Class of executed instruction
system.cpu.op_class::FloatMisc                      0      0.00%     43.75% # Class of executed instruction
system.cpu.op_class::FloatSqrt                      0      0.00%     43.75% # Class of executed instruction
system.cpu.op_class::SimdAdd                        0      0.00%     43.75% # Class of executed instruction
system.cpu.op_class::SimdAddAcc                     0      0.00%     43.75% # Class of executed instruction
system.cpu.op_class::SimdAlu                        2     12.50%     56.25% # Class of executed instruction
system.cpu.op_class::SimdCmp                        0      0.00%     56.25% # Class of executed instruction
system.cpu.op_class::SimdCvt                        0      0.00%     56.25% # Class of executed instruction
system.cpu.op_class::SimdMisc                       0      0.00%     56.25% # Class of executed instruction
system.cpu.op_class::SimdMult                       0      0.00%     56.25% # Class of executed instruction
system.cpu.op_class::SimdMultAcc                    0      0.00%     56.25% # Class of executed instruction
system.cpu.op_class::SimdShift                      0      0.00%     56.25% # Class of executed instruction
system.cpu.op_class::SimdShiftAcc                   0      0.00%     56.25% # Class of executed instruction
system.cpu.op_class::SimdDiv                        0      0.00%     56.25% # Class of executed instruction
system.cpu.op_class::SimdSqrt                       0      0.00%     56.25% # Class of executed instruction
system.cpu.op_class::SimdFloatAdd                   3     18.75%     75.00% # Class of executed instruction
system.cpu.op_class::SimdFloatAlu                   0      0.00%     75.00% # Class of executed instruction
system.cpu.op_class::SimdFloatCmp                   0      0.00%     75.00% # Class of executed instruction
system.cpu.op_class::SimdFloatCvt                   0      0.00%     75.00% # Class of executed instruction
system.cpu.op_class::SimdFloatDiv                   0      0.00%     75.00% # Class of executed instruction
system.cpu.op_class::SimdFloatMisc                  0      0.00%     75.00% # Class of executed instruction
system.cpu.op_class::SimdFloatMult                  1      6.25%     81.25% # Class of executed instruction
system.cpu.op_class::SimdFloatMultAcc               0      0.00%     81.25% # Class of executed instruction
system.cpu.op_class::SimdFloatSqrt                  0      0.00%     81.25% # Class of executed instruction
system.cpu.op_class::SimdReduceAdd                  0      0.00%     81.25% # Class of executed instruction
system.cpu.op_class::SimdReduceAlu                  0      0.00%     81.25% # Class of executed instruction
system.cpu.op_class::SimdReduceCmp                  0      0.00%     81.25% # Class of executed instruction
system.cpu.op_class::SimdFloatReduceAdd             0      0.00%     81.25% # Class of executed instruction
system.cpu.op_class::SimdFloatReduceCmp             0      0.00%     81.25% # Class of executed instruction
system.cpu.op_class::SimdAes                        0      0.00%     81.25% # Class of executed instruction
system.cpu.op_class::SimdAesMix                     0      0.00%     81.25% # Class of executed instruction
system.cpu.op_class::SimdSha1Hash                   0      0.00%     81.25% # Class of executed instruction
system.cpu.op_class::SimdSha1Hash2                  0      0.00%     81.25% # Class of executed instruction
system.cpu.op_class::SimdSha256Hash                 0      0.00%     81.25% # Class of executed instruction
system.cpu.op_class::SimdSha256Hash2                0      0.00%     81.25% # Class of executed instruction
system.cpu.op_class::SimdShaSigma2                  0      0.00%     81.25% # Class of executed instruction
system.cpu.op_class::SimdShaSigma3                  0      0.00%     81.25% # Class of executed instruction
system.cpu.op_class::SimdPredAlu                    0      0.00%     81.25% # Class of executed instruction
system.cpu.op_class::MemRead                        0      0.00%     81.25% # Class of executed instruction
system.cpu.op_class::MemWrite                       0      0.00%     81.25% # Class of executed instruction
system.cpu.op_class::FloatMemRead                   3     18.75%    100.00% # Class of executed instruction
system.cpu.op_class::FloatMemWrite                  0      0.00%    100.00% # Class of executed instruction
system.cpu.op_class::IprAccess                      0      0.00%    100.00% # Class of executed instruction
system.cpu.op_class::InstPrefetch                   0      0.00%    100.00% # Class of executed instruction
system.cpu.op_class::total                         16                       # Class of executed instruction
system.cpu.workload.numSyscalls                     0                       # Number of system calls
system.membus.snoop_filter.hit_multi_requests            0                       # Number of requests hitting in the snoop filter with multiple (>1) holders of the requested data.
system.membus.snoop_filter.hit_multi_snoops            0                       # Number of snoops hitting in the snoop filter with multiple (>1) holders of the requested data.
system.membus.snoop_filter.hit_single_requests       169313                       # Number of requests hitting in the snoop filter with a single holder of the requested data.
system.membus.snoop_filter.hit_single_snoops            0                       # Number of snoops hitting in the snoop filter with a single holder of the requested data.
system.membus.snoop_filter.tot_requests        343454                       # Total number of requests made to the snoop filter.
system.membus.snoop_filter.tot_snoops               0                       # Total number of snoops made to the snoop filter.
system.switch_cpus.branchPred.BTBCorrect            0                       # Number of correct BTB predictions (this stat may not work properly.
system.switch_cpus.branchPred.BTBHitPct      0.000000                       # BTB Hit Percentage
system.switch_cpus.branchPred.BTBHits               0                       # Number of BTB hits
system.switch_cpus.branchPred.BTBLookups      1372854                       # Number of BTB lookups
system.switch_cpus.branchPred.RASInCorrect           37                       # Number of incorrect RAS predictions.
system.switch_cpus.branchPred.condIncorrect        77446                       # Number of conditional branches incorrect
system.switch_cpus.branchPred.condPredicted      1404302                       # Number of conditional branches predicted
system.switch_cpus.branchPred.indirectHits      1026054                       # Number of indirect target hits.
system.switch_cpus.branchPred.indirectLookups      1372854                       # Number of indirect predictor lookups.
system.switch_cpus.branchPred.indirectMisses       346800                       # Number of indirect misses.
system.switch_cpus.branchPred.lookups         1502684                       # Number of BP lookups
system.switch_cpus.branchPred.usedRAS           48162                       # Number of times the RAS was used to get a target.
system.switch_cpus.branchPredindirectMispredicted        20082                       # Number of mispredicted indirect branches.
system.switch_cpus.cc_regfile_reads           6488825                       # number of cc regfile reads
system.switch_cpus.cc_regfile_writes          4458135                       # number of cc regfile writes
system.switch_cpus.commit.amos                      0                       # Number of atomic instructions committed
system.switch_cpus.commit.branchMispredicts        77515                       # The number of times a branch was mispredicted
system.switch_cpus.commit.branches            1049066                       # Number of branches committed
system.switch_cpus.commit.bw_lim_events       1449043                       # number cycles where commit BW limit reached
system.switch_cpus.commit.commitSquashedInsts      3044131                       # The number of squashed insts skipped by commit
system.switch_cpus.commit.committedInsts     10000001                       # Number of instructions committed
system.switch_cpus.commit.committedOps       16876328                       # Number of ops (including micro ops) committed
system.switch_cpus.commit.committed_per_cycle::samples     18445895                       # Number of insts commited each cycle
system.switch_cpus.commit.committed_per_cycle::mean     0.914910                       # Number of insts commited each cycle
system.switch_cpus.commit.committed_per_cycle::stdev     2.301792                       # Number of insts commited each cycle
system.switch_cpus.commit.committed_per_cycle::underflows            0      0.00%      0.00% # Number of insts commited each cycle
system.switch_cpus.commit.committed_per_cycle::0     15025376     81.46%     81.46% # Number of insts commited each cycle
system.switch_cpus.commit.committed_per_cycle::1       879228      4.77%     86.22% # Number of insts commited each cycle
system.switch_cpus.commit.committed_per_cycle::2       138363      0.75%     86.97% # Number of insts commited each cycle
system.switch_cpus.commit.committed_per_cycle::3       219956      1.19%     88.17% # Number of insts commited each cycle
system.switch_cpus.commit.committed_per_cycle::4       389397      2.11%     90.28% # Number of insts commited each cycle
system.switch_cpus.commit.committed_per_cycle::5       211331      1.15%     91.42% # Number of insts commited each cycle
system.switch_cpus.commit.committed_per_cycle::6        78488      0.43%     91.85% # Number of insts commited each cycle
system.switch_cpus.commit.committed_per_cycle::7        54713      0.30%     92.14% # Number of insts commited each cycle
system.switch_cpus.commit.committed_per_cycle::8      1449043      7.86%    100.00% # Number of insts commited each cycle
system.switch_cpus.commit.committed_per_cycle::overflows            0      0.00%    100.00% # Number of insts commited each cycle
system.switch_cpus.commit.committed_per_cycle::min_value            0                       # Number of insts commited each cycle
system.switch_cpus.commit.committed_per_cycle::max_value            8                       # Number of insts commited each cycle
system.switch_cpus.commit.committed_per_cycle::total     18445895                       # Number of insts commited each cycle
system.switch_cpus.commit.fp_insts            8713194                       # Number of committed floating point instructions.
system.switch_cpus.commit.function_calls        26226                       # Number of function calls committed.
system.switch_cpus.commit.int_insts          10019631                       # Number of committed integer instructions.
system.switch_cpus.commit.loads               2743170                       # Number of loads committed
system.switch_cpus.commit.membars                   0                       # Number of memory barriers committed
system.switch_cpus.commit.op_class_0::No_OpClass        27517      0.16%      0.16% # Class of committed instruction
system.switch_cpus.commit.op_class_0::IntAlu      7410720     43.91%     44.07% # Class of committed instruction
system.switch_cpus.commit.op_class_0::IntMult          119      0.00%     44.08% # Class of committed instruction
system.switch_cpus.commit.op_class_0::IntDiv           56      0.00%     44.08% # Class of committed instruction
system.switch_cpus.commit.op_class_0::FloatAdd       891416      5.28%     49.36% # Class of committed instruction
system.switch_cpus.commit.op_class_0::FloatCmp            0      0.00%     49.36% # Class of committed instruction
system.switch_cpus.commit.op_class_0::FloatCvt            0      0.00%     49.36% # Class of committed instruction
system.switch_cpus.commit.op_class_0::FloatMult            0      0.00%     49.36% # Class of committed instruction
system.switch_cpus.commit.op_class_0::FloatMultAcc            0      0.00%     49.36% # Class of committed instruction
system.switch_cpus.commit.op_class_0::FloatDiv            0      0.00%     49.36% # Class of committed instruction
system.switch_cpus.commit.op_class_0::FloatMisc            0      0.00%     49.36% # Class of committed instruction
system.switch_cpus.commit.op_class_0::FloatSqrt            0      0.00%     49.36% # Class of committed instruction
system.switch_cpus.commit.op_class_0::SimdAdd            0      0.00%     49.36% # Class of committed instruction
system.switch_cpus.commit.op_class_0::SimdAddAcc            0      0.00%     49.36% # Class of committed instruction
system.switch_cpus.commit.op_class_0::SimdAlu      1379320      8.17%     57.53% # Class of committed instruction
system.switch_cpus.commit.op_class_0::SimdCmp            0      0.00%     57.53% # Class of committed instruction
system.switch_cpus.commit.op_class_0::SimdCvt            4      0.00%     57.53% # Class of committed instruction
system.switch_cpus.commit.op_class_0::SimdMisc        34436      0.20%     57.74% # Class of committed instruction
system.switch_cpus.commit.op_class_0::SimdMult            0      0.00%     57.74% # Class of committed instruction
system.switch_cpus.commit.op_class_0::SimdMultAcc            0      0.00%     57.74% # Class of committed instruction
system.switch_cpus.commit.op_class_0::SimdShift            0      0.00%     57.74% # Class of committed instruction
system.switch_cpus.commit.op_class_0::SimdShiftAcc            0      0.00%     57.74% # Class of committed instruction
system.switch_cpus.commit.op_class_0::SimdDiv            0      0.00%     57.74% # Class of committed instruction
system.switch_cpus.commit.op_class_0::SimdSqrt            0      0.00%     57.74% # Class of committed instruction
system.switch_cpus.commit.op_class_0::SimdFloatAdd      1310530      7.77%     65.50% # Class of committed instruction
system.switch_cpus.commit.op_class_0::SimdFloatAlu            0      0.00%     65.50% # Class of committed instruction
system.switch_cpus.commit.op_class_0::SimdFloatCmp        15450      0.09%     65.59% # Class of committed instruction
system.switch_cpus.commit.op_class_0::SimdFloatCvt      1398264      8.29%     73.88% # Class of committed instruction
system.switch_cpus.commit.op_class_0::SimdFloatDiv            0      0.00%     73.88% # Class of committed instruction
system.switch_cpus.commit.op_class_0::SimdFloatMisc            0      0.00%     73.88% # Class of committed instruction
system.switch_cpus.commit.op_class_0::SimdFloatMult      1344926      7.97%     81.85% # Class of committed instruction
system.switch_cpus.commit.op_class_0::SimdFloatMultAcc            0      0.00%     81.85% # Class of committed instruction
system.switch_cpus.commit.op_class_0::SimdFloatSqrt            0      0.00%     81.85% # Class of committed instruction
system.switch_cpus.commit.op_class_0::SimdReduceAdd            0      0.00%     81.85% # Class of committed instruction
system.switch_cpus.commit.op_class_0::SimdReduceAlu            0      0.00%     81.85% # Class of committed instruction
system.switch_cpus.commit.op_class_0::SimdReduceCmp            0      0.00%     81.85% # Class of committed instruction
system.switch_cpus.commit.op_class_0::SimdFloatReduceAdd            0      0.00%     81.85% # Class of committed instruction
system.switch_cpus.commit.op_class_0::SimdFloatReduceCmp            0      0.00%     81.85% # Class of committed instruction
system.switch_cpus.commit.op_class_0::SimdAes            0      0.00%     81.85% # Class of committed instruction
system.switch_cpus.commit.op_class_0::SimdAesMix            0      0.00%     81.85% # Class of committed instruction
system.switch_cpus.commit.op_class_0::SimdSha1Hash            0      0.00%     81.85% # Class of committed instruction
system.switch_cpus.commit.op_class_0::SimdSha1Hash2            0      0.00%     81.85% # Class of committed instruction
system.switch_cpus.commit.op_class_0::SimdSha256Hash            0      0.00%     81.85% # Class of committed instruction
system.switch_cpus.commit.op_class_0::SimdSha256Hash2            0      0.00%     81.85% # Class of committed instruction
system.switch_cpus.commit.op_class_0::SimdShaSigma2            0      0.00%     81.85% # Class of committed instruction
system.switch_cpus.commit.op_class_0::SimdShaSigma3            0      0.00%     81.85% # Class of committed instruction
system.switch_cpus.commit.op_class_0::SimdPredAlu            0      0.00%     81.85% # Class of committed instruction
system.switch_cpus.commit.op_class_0::MemRead       937733      5.56%     87.40% # Class of committed instruction
system.switch_cpus.commit.op_class_0::MemWrite       275299      1.63%     89.03% # Class of committed instruction
system.switch_cpus.commit.op_class_0::FloatMemRead      1805437     10.70%     99.73% # Class of committed instruction
system.switch_cpus.commit.op_class_0::FloatMemWrite        45101      0.27%    100.00% # Class of committed instruction
system.switch_cpus.commit.op_class_0::IprAccess            0      0.00%    100.00% # Class of committed instruction
system.switch_cpus.commit.op_class_0::InstPrefetch            0      0.00%    100.00% # Class of committed instruction
system.switch_cpus.commit.op_class_0::total     16876328                       # Class of committed instruction
system.switch_cpus.commit.refs                3063570                       # Number of memory references committed
system.switch_cpus.commit.swp_count                 0                       # Number of s/w prefetches committed
system.switch_cpus.commit.vec_insts                 0                       # Number of committed Vector instructions.
system.switch_cpus.committedInsts            10000001                       # Number of Instructions Simulated
system.switch_cpus.committedOps              16876328                       # Number of Ops (including micro ops) Simulated
system.switch_cpus.cpi                       1.893431                       # CPI: Cycles Per Instruction
system.switch_cpus.cpi_total                 1.893431                       # CPI: Total CPI of All Threads
system.switch_cpus.decode.BlockedCycles      14618938                       # Number of cycles decode is blocked
system.switch_cpus.decode.DecodedInsts       20841547                       # Number of instructions handled by decode
system.switch_cpus.decode.IdleCycles          1195255                       # Number of cycles decode is idle
system.switch_cpus.decode.RunCycles           2164927                       # Number of cycles decode is running
system.switch_cpus.decode.SquashCycles          77765                       # Number of cycles decode is squashing
system.switch_cpus.decode.UnblockCycles        817753                       # Number of cycles decode is unblocking
system.switch_cpus.dtb.rdAccesses             3212550                       # TLB accesses on read requests
system.switch_cpus.dtb.rdMisses                 15697                       # TLB misses on read requests
system.switch_cpus.dtb.wrAccesses              369434                       # TLB accesses on write requests
system.switch_cpus.dtb.wrMisses                  1260                       # TLB misses on write requests
system.switch_cpus.fetch.Branches             1502684                       # Number of branches that fetch encountered
system.switch_cpus.fetch.CacheLines           1747795                       # Number of cache lines fetched
system.switch_cpus.fetch.Cycles              16978913                       # Number of cycles fetch has run and was not squashing or blocked
system.switch_cpus.fetch.IcacheSquashes         16970                       # Number of outstanding Icache misses that were squashed
system.switch_cpus.fetch.IcacheWaitRetryStallCycles           63                       # Number of stall cycles due to full MSHR
system.switch_cpus.fetch.Insts               13077773                       # Number of instructions fetch has processed
system.switch_cpus.fetch.ItlbSquashes               1                       # Number of outstanding ITLB misses that were squashed
system.switch_cpus.fetch.MiscStallCycles           63                       # Number of cycles fetch has spent waiting on interrupts, or bad addresses, or out of MSHRs
system.switch_cpus.fetch.PendingTrapStallCycles         3816                       # Number of stall cycles due to pending traps
system.switch_cpus.fetch.SquashCycles          155530                       # Number of cycles fetch has spent squashing
system.switch_cpus.fetch.TlbCycles                  3                       # Number of cycles fetch has spent waiting for tlb
system.switch_cpus.fetch.branchRate          0.079363                       # Number of branch fetches per cycle
system.switch_cpus.fetch.icacheStallCycles      1814019                       # Number of cycles fetch is stalled on an Icache miss
system.switch_cpus.fetch.predictedBranches      1074216                       # Number of branches that fetch has predicted taken
system.switch_cpus.fetch.rate                0.690692                       # Number of inst fetches per cycle
system.switch_cpus.fetch.rateDist::samples     18874642                       # Number of instructions fetched each cycle (Total)
system.switch_cpus.fetch.rateDist::mean      1.173965                       # Number of instructions fetched each cycle (Total)
system.switch_cpus.fetch.rateDist::stdev     2.579831                       # Number of instructions fetched each cycle (Total)
system.switch_cpus.fetch.rateDist::underflows            0      0.00%      0.00% # Number of instructions fetched each cycle (Total)
system.switch_cpus.fetch.rateDist::0         15115625     80.08%     80.08% # Number of instructions fetched each cycle (Total)
system.switch_cpus.fetch.rateDist::1           276834      1.47%     81.55% # Number of instructions fetched each cycle (Total)
system.switch_cpus.fetch.rateDist::2           212456      1.13%     82.68% # Number of instructions fetched each cycle (Total)
system.switch_cpus.fetch.rateDist::3           226050      1.20%     83.87% # Number of instructions fetched each cycle (Total)
system.switch_cpus.fetch.rateDist::4           327479      1.74%     85.61% # Number of instructions fetched each cycle (Total)
system.switch_cpus.fetch.rateDist::5           387649      2.05%     87.66% # Number of instructions fetched each cycle (Total)
system.switch_cpus.fetch.rateDist::6           494308      2.62%     90.28% # Number of instructions fetched each cycle (Total)
system.switch_cpus.fetch.rateDist::7           109656      0.58%     90.86% # Number of instructions fetched each cycle (Total)
system.switch_cpus.fetch.rateDist::8          1724585      9.14%    100.00% # Number of instructions fetched each cycle (Total)
system.switch_cpus.fetch.rateDist::overflows            0      0.00%    100.00% # Number of instructions fetched each cycle (Total)
system.switch_cpus.fetch.rateDist::min_value            0                       # Number of instructions fetched each cycle (Total)
system.switch_cpus.fetch.rateDist::max_value            8                       # Number of instructions fetched each cycle (Total)
system.switch_cpus.fetch.rateDist::total     18874642                       # Number of instructions fetched each cycle (Total)
system.switch_cpus.fp_regfile_reads          14837887                       # number of floating regfile reads
system.switch_cpus.fp_regfile_writes          8828259                       # number of floating regfile writes
system.switch_cpus.idleCycles                   59669                       # Total number of cycles that the CPU has spent unscheduled due to idling
system.switch_cpus.iew.branchMispredicts        87528                       # Number of branch mispredicts detected at execute
system.switch_cpus.iew.exec_branches          1166321                       # Number of branches executed
system.switch_cpus.iew.exec_nop                     0                       # number of nop insts executed
system.switch_cpus.iew.exec_rate             1.000015                       # Inst execution rate
system.switch_cpus.iew.exec_refs              3672200                       # number of memory reference insts executed
system.switch_cpus.iew.exec_stores             369369                       # Number of stores executed
system.switch_cpus.iew.exec_swp                     0                       # number of swp insts executed
system.switch_cpus.iew.iewBlockCycles         7749079                       # Number of cycles IEW is blocking
system.switch_cpus.iew.iewDispLoadInsts       3303745                       # Number of dispatched load instructions
system.switch_cpus.iew.iewDispNonSpecInsts           20                       # Number of dispatched non-speculative instructions
system.switch_cpus.iew.iewDispSquashedInsts         7035                       # Number of squashed instructions skipped by dispatch
system.switch_cpus.iew.iewDispStoreInsts       429459                       # Number of dispatched store instructions
system.switch_cpus.iew.iewDispatchedInsts     19917162                       # Number of instructions dispatched to IQ
system.switch_cpus.iew.iewExecLoadInsts       3302831                       # Number of load instructions executed
system.switch_cpus.iew.iewExecSquashedInsts       139759                       # Number of squashed instructions skipped in execute
system.switch_cpus.iew.iewExecutedInsts      18934599                       # Number of executed instructions
system.switch_cpus.iew.iewIQFullEvents          79764                       # Number of times the IQ has become full, causing a stall
system.switch_cpus.iew.iewIdleCycles                0                       # Number of cycles IEW is idle
system.switch_cpus.iew.iewLSQFullEvents        637134                       # Number of times the LSQ has become full, causing a stall
system.switch_cpus.iew.iewSquashCycles          77765                       # Number of cycles IEW is squashing
system.switch_cpus.iew.iewUnblockCycles        764673                       # Number of cycles IEW is unblocking
system.switch_cpus.iew.lsq.thread0.blockedLoads            0                       # Number of blocked loads due to partial load-store forwarding
system.switch_cpus.iew.lsq.thread0.cacheBlocked        29752                       # Number of times an access to memory failed due to the cache being blocked
system.switch_cpus.iew.lsq.thread0.forwLoads        50230                       # Number of loads that had data forwarded from stores
system.switch_cpus.iew.lsq.thread0.ignoredResponses          355                       # Number of memory responses ignored because the instruction is squashed
system.switch_cpus.iew.lsq.thread0.invAddrLoads            0                       # Number of loads ignored due to an invalid address
system.switch_cpus.iew.lsq.thread0.invAddrSwpfs            0                       # Number of software prefetches ignored due to an invalid address
system.switch_cpus.iew.lsq.thread0.memOrderViolation          309                       # Number of memory ordering violations
system.switch_cpus.iew.lsq.thread0.rescheduledLoads          213                       # Number of loads that were rescheduled
system.switch_cpus.iew.lsq.thread0.squashedLoads       560556                       # Number of loads squashed
system.switch_cpus.iew.lsq.thread0.squashedStores       109059                       # Number of stores squashed
system.switch_cpus.iew.memOrderViolationEvents          309                       # Number of memory order violations
system.switch_cpus.iew.predictedNotTakenIncorrect        30042                       # Number of branches that were predicted not taken incorrectly
system.switch_cpus.iew.predictedTakenIncorrect        57486                       # Number of branches that were predicted taken incorrectly
system.switch_cpus.iew.wb_consumers          24051697                       # num instructions consuming a value
system.switch_cpus.iew.wb_count              18616106                       # cumulative count of insts written-back
system.switch_cpus.iew.wb_fanout             0.596916                       # average fanout of values written-back
system.switch_cpus.iew.wb_producers          14356853                       # num instructions producing a value
system.switch_cpus.iew.wb_rate               0.983194                       # insts written-back per cycle
system.switch_cpus.iew.wb_sent               18649185                       # cumulative count of insts sent to commit
system.switch_cpus.int_regfile_reads         17191817                       # number of integer regfile reads
system.switch_cpus.int_regfile_writes         8222894                       # number of integer regfile writes
system.switch_cpus.ipc                       0.528142                       # IPC: Instructions Per Cycle
system.switch_cpus.ipc_total                 0.528142                       # IPC: Total IPC of All Threads
system.switch_cpus.iq.FU_type_0::No_OpClass        39386      0.21%      0.21% # Type of FU issued
system.switch_cpus.iq.FU_type_0::IntAlu       8762734     45.94%     46.15% # Type of FU issued
system.switch_cpus.iq.FU_type_0::IntMult          203      0.00%     46.15% # Type of FU issued
system.switch_cpus.iq.FU_type_0::IntDiv            87      0.00%     46.15% # Type of FU issued
system.switch_cpus.iq.FU_type_0::FloatAdd       967867      5.07%     51.22% # Type of FU issued
system.switch_cpus.iq.FU_type_0::FloatCmp            0      0.00%     51.22% # Type of FU issued
system.switch_cpus.iq.FU_type_0::FloatCvt            0      0.00%     51.22% # Type of FU issued
system.switch_cpus.iq.FU_type_0::FloatMult            0      0.00%     51.22% # Type of FU issued
system.switch_cpus.iq.FU_type_0::FloatMultAcc            0      0.00%     51.22% # Type of FU issued
system.switch_cpus.iq.FU_type_0::FloatDiv            0      0.00%     51.22% # Type of FU issued
system.switch_cpus.iq.FU_type_0::FloatMisc            0      0.00%     51.22% # Type of FU issued
system.switch_cpus.iq.FU_type_0::FloatSqrt            0      0.00%     51.22% # Type of FU issued
system.switch_cpus.iq.FU_type_0::SimdAdd            0      0.00%     51.22% # Type of FU issued
system.switch_cpus.iq.FU_type_0::SimdAddAcc            0      0.00%     51.22% # Type of FU issued
system.switch_cpus.iq.FU_type_0::SimdAlu      1450163      7.60%     58.82% # Type of FU issued
system.switch_cpus.iq.FU_type_0::SimdCmp            0      0.00%     58.82% # Type of FU issued
system.switch_cpus.iq.FU_type_0::SimdCvt            8      0.00%     58.82% # Type of FU issued
system.switch_cpus.iq.FU_type_0::SimdMisc        35281      0.18%     59.01% # Type of FU issued
system.switch_cpus.iq.FU_type_0::SimdMult            0      0.00%     59.01% # Type of FU issued
system.switch_cpus.iq.FU_type_0::SimdMultAcc            0      0.00%     59.01% # Type of FU issued
system.switch_cpus.iq.FU_type_0::SimdShift            0      0.00%     59.01% # Type of FU issued
system.switch_cpus.iq.FU_type_0::SimdShiftAcc            0      0.00%     59.01% # Type of FU issued
system.switch_cpus.iq.FU_type_0::SimdDiv            0      0.00%     59.01% # Type of FU issued
system.switch_cpus.iq.FU_type_0::SimdSqrt            0      0.00%     59.01% # Type of FU issued
system.switch_cpus.iq.FU_type_0::SimdFloatAdd      1317465      6.91%     65.92% # Type of FU issued
system.switch_cpus.iq.FU_type_0::SimdFloatAlu            0      0.00%     65.92% # Type of FU issued
system.switch_cpus.iq.FU_type_0::SimdFloatCmp        15453      0.08%     66.00% # Type of FU issued
system.switch_cpus.iq.FU_type_0::SimdFloatCvt      1409305      7.39%     73.39% # Type of FU issued
system.switch_cpus.iq.FU_type_0::SimdFloatDiv            0      0.00%     73.39% # Type of FU issued
system.switch_cpus.iq.FU_type_0::SimdFloatMisc            0      0.00%     73.39% # Type of FU issued
system.switch_cpus.iq.FU_type_0::SimdFloatMult      1352475      7.09%     80.48% # Type of FU issued
system.switch_cpus.iq.FU_type_0::SimdFloatMultAcc            0      0.00%     80.48% # Type of FU issued
system.switch_cpus.iq.FU_type_0::SimdFloatSqrt            0      0.00%     80.48% # Type of FU issued
system.switch_cpus.iq.FU_type_0::SimdReduceAdd            0      0.00%     80.48% # Type of FU issued
system.switch_cpus.iq.FU_type_0::SimdReduceAlu            0      0.00%     80.48% # Type of FU issued
system.switch_cpus.iq.FU_type_0::SimdReduceCmp            0      0.00%     80.48% # Type of FU issued
system.switch_cpus.iq.FU_type_0::SimdFloatReduceAdd            0      0.00%     80.48% # Type of FU issued
system.switch_cpus.iq.FU_type_0::SimdFloatReduceCmp            0      0.00%     80.48% # Type of FU issued
system.switch_cpus.iq.FU_type_0::SimdAes            0      0.00%     80.48% # Type of FU issued
system.switch_cpus.iq.FU_type_0::SimdAesMix            0      0.00%     80.48% # Type of FU issued
system.switch_cpus.iq.FU_type_0::SimdSha1Hash            0      0.00%     80.48% # Type of FU issued
system.switch_cpus.iq.FU_type_0::SimdSha1Hash2            0      0.00%     80.48% # Type of FU issued
system.switch_cpus.iq.FU_type_0::SimdSha256Hash            0      0.00%     80.48% # Type of FU issued
system.switch_cpus.iq.FU_type_0::SimdSha256Hash2            0      0.00%     80.48% # Type of FU issued
system.switch_cpus.iq.FU_type_0::SimdShaSigma2            0      0.00%     80.48% # Type of FU issued
system.switch_cpus.iq.FU_type_0::SimdShaSigma3            0      0.00%     80.48% # Type of FU issued
system.switch_cpus.iq.FU_type_0::SimdPredAlu            0      0.00%     80.48% # Type of FU issued
system.switch_cpus.iq.FU_type_0::MemRead      1368662      7.18%     87.65% # Type of FU issued
system.switch_cpus.iq.FU_type_0::MemWrite       330684      1.73%     89.39% # Type of FU issued
system.switch_cpus.iq.FU_type_0::FloatMemRead      1978564     10.37%     99.76% # Type of FU issued
system.switch_cpus.iq.FU_type_0::FloatMemWrite        46023      0.24%    100.00% # Type of FU issued
system.switch_cpus.iq.FU_type_0::IprAccess            0      0.00%    100.00% # Type of FU issued
system.switch_cpus.iq.FU_type_0::InstPrefetch            0      0.00%    100.00% # Type of FU issued
system.switch_cpus.iq.FU_type_0::total       19074360                       # Type of FU issued
system.switch_cpus.iq.fp_alu_accesses         9283965                       # Number of floating point alu accesses
system.switch_cpus.iq.fp_inst_queue_reads     18364413                       # Number of floating instruction queue reads
system.switch_cpus.iq.fp_inst_queue_wakeup_accesses      8916855                       # Number of floating instruction queue wakeup accesses
system.switch_cpus.iq.fp_inst_queue_writes      9733321                       # Number of floating instruction queue writes
system.switch_cpus.iq.fu_busy_cnt              350402                       # FU busy when requested
system.switch_cpus.iq.fu_busy_rate           0.018370                       # FU busy rate (busy events/executed inst)
system.switch_cpus.iq.fu_full::No_OpClass            0      0.00%      0.00% # attempts to use FU when none available
system.switch_cpus.iq.fu_full::IntAlu          102189     29.16%     29.16% # attempts to use FU when none available
system.switch_cpus.iq.fu_full::IntMult              0      0.00%     29.16% # attempts to use FU when none available
system.switch_cpus.iq.fu_full::IntDiv               0      0.00%     29.16% # attempts to use FU when none available
system.switch_cpus.iq.fu_full::FloatAdd             0      0.00%     29.16% # attempts to use FU when none available
system.switch_cpus.iq.fu_full::FloatCmp             0      0.00%     29.16% # attempts to use FU when none available
system.switch_cpus.iq.fu_full::FloatCvt             0      0.00%     29.16% # attempts to use FU when none available
system.switch_cpus.iq.fu_full::FloatMult            0      0.00%     29.16% # attempts to use FU when none available
system.switch_cpus.iq.fu_full::FloatMultAcc            0      0.00%     29.16% # attempts to use FU when none available
system.switch_cpus.iq.fu_full::FloatDiv             0      0.00%     29.16% # attempts to use FU when none available
system.switch_cpus.iq.fu_full::FloatMisc            0      0.00%     29.16% # attempts to use FU when none available
system.switch_cpus.iq.fu_full::FloatSqrt            0      0.00%     29.16% # attempts to use FU when none available
system.switch_cpus.iq.fu_full::SimdAdd              0      0.00%     29.16% # attempts to use FU when none available
system.switch_cpus.iq.fu_full::SimdAddAcc            0      0.00%     29.16% # attempts to use FU when none available
system.switch_cpus.iq.fu_full::SimdAlu          61519     17.56%     46.72% # attempts to use FU when none available
system.switch_cpus.iq.fu_full::SimdCmp              0      0.00%     46.72% # attempts to use FU when none available
system.switch_cpus.iq.fu_full::SimdCvt              0      0.00%     46.72% # attempts to use FU when none available
system.switch_cpus.iq.fu_full::SimdMisc             0      0.00%     46.72% # attempts to use FU when none available
system.switch_cpus.iq.fu_full::SimdMult             0      0.00%     46.72% # attempts to use FU when none available
system.switch_cpus.iq.fu_full::SimdMultAcc            0      0.00%     46.72% # attempts to use FU when none available
system.switch_cpus.iq.fu_full::SimdShift            0      0.00%     46.72% # attempts to use FU when none available
system.switch_cpus.iq.fu_full::SimdShiftAcc            0      0.00%     46.72% # attempts to use FU when none available
system.switch_cpus.iq.fu_full::SimdDiv              0      0.00%     46.72% # attempts to use FU when none available
system.switch_cpus.iq.fu_full::SimdSqrt             0      0.00%     46.72% # attempts to use FU when none available
system.switch_cpus.iq.fu_full::SimdFloatAdd        83969     23.96%     70.68% # attempts to use FU when none available
system.switch_cpus.iq.fu_full::SimdFloatAlu            0      0.00%     70.68% # attempts to use FU when none available
system.switch_cpus.iq.fu_full::SimdFloatCmp            4      0.00%     70.68% # attempts to use FU when none available
system.switch_cpus.iq.fu_full::SimdFloatCvt        23091      6.59%     77.27% # attempts to use FU when none available
system.switch_cpus.iq.fu_full::SimdFloatDiv            0      0.00%     77.27% # attempts to use FU when none available
system.switch_cpus.iq.fu_full::SimdFloatMisc            0      0.00%     77.27% # attempts to use FU when none available
system.switch_cpus.iq.fu_full::SimdFloatMult         3233      0.92%     78.20% # attempts to use FU when none available
system.switch_cpus.iq.fu_full::SimdFloatMultAcc            0      0.00%     78.20% # attempts to use FU when none available
system.switch_cpus.iq.fu_full::SimdFloatSqrt            0      0.00%     78.20% # attempts to use FU when none available
system.switch_cpus.iq.fu_full::SimdReduceAdd            0      0.00%     78.20% # attempts to use FU when none available
system.switch_cpus.iq.fu_full::SimdReduceAlu            0      0.00%     78.20% # attempts to use FU when none available
system.switch_cpus.iq.fu_full::SimdReduceCmp            0      0.00%     78.20% # attempts to use FU when none available
system.switch_cpus.iq.fu_full::SimdFloatReduceAdd            0      0.00%     78.20% # attempts to use FU when none available
system.switch_cpus.iq.fu_full::SimdFloatReduceCmp            0      0.00%     78.20% # attempts to use FU when none available
system.switch_cpus.iq.fu_full::SimdAes              0      0.00%     78.20% # attempts to use FU when none available
system.switch_cpus.iq.fu_full::SimdAesMix            0      0.00%     78.20% # attempts to use FU when none available
system.switch_cpus.iq.fu_full::SimdSha1Hash            0      0.00%     78.20% # attempts to use FU when none available
system.switch_cpus.iq.fu_full::SimdSha1Hash2            0      0.00%     78.20% # attempts to use FU when none available
system.switch_cpus.iq.fu_full::SimdSha256Hash            0      0.00%     78.20% # attempts to use FU when none available
system.switch_cpus.iq.fu_full::SimdSha256Hash2            0      0.00%     78.20% # attempts to use FU when none available
system.switch_cpus.iq.fu_full::SimdShaSigma2            0      0.00%     78.20% # attempts to use FU when none available
system.switch_cpus.iq.fu_full::SimdShaSigma3            0      0.00%     78.20% # attempts to use FU when none available
system.switch_cpus.iq.fu_full::SimdPredAlu            0      0.00%     78.20% # attempts to use FU when none available
system.switch_cpus.iq.fu_full::MemRead          34856      9.95%     88.14% # attempts to use FU when none available
system.switch_cpus.iq.fu_full::MemWrite          6012      1.72%     89.86% # attempts to use FU when none available
system.switch_cpus.iq.fu_full::FloatMemRead        35444     10.12%     99.98% # attempts to use FU when none available
system.switch_cpus.iq.fu_full::FloatMemWrite           85      0.02%    100.00% # attempts to use FU when none available
system.switch_cpus.iq.fu_full::IprAccess            0      0.00%    100.00% # attempts to use FU when none available
system.switch_cpus.iq.fu_full::InstPrefetch            0      0.00%    100.00% # attempts to use FU when none available
system.switch_cpus.iq.int_alu_accesses       10101411                       # Number of integer alu accesses
system.switch_cpus.iq.int_inst_queue_reads     39058100                       # Number of integer instruction queue reads
system.switch_cpus.iq.int_inst_queue_wakeup_accesses      9699251                       # Number of integer instruction queue wakeup accesses
system.switch_cpus.iq.int_inst_queue_writes     13224847                       # Number of integer instruction queue writes
system.switch_cpus.iq.iqInstsAdded           19917102                       # Number of instructions added to the IQ (excludes non-spec)
system.switch_cpus.iq.iqInstsIssued          19074360                       # Number of instructions issued
system.switch_cpus.iq.iqNonSpecInstsAdded           60                       # Number of non-speculative instructions added to the IQ
system.switch_cpus.iq.iqSquashedInstsExamined      3040723                       # Number of squashed instructions iterated over during squash; mainly for profiling
system.switch_cpus.iq.iqSquashedInstsIssued        48751                       # Number of squashed instructions issued
system.switch_cpus.iq.iqSquashedNonSpecRemoved           60                       # Number of squashed non-spec instructions that were removed
system.switch_cpus.iq.iqSquashedOperandsExamined      4236678                       # Number of squashed operands that are examined and possibly removed from graph
system.switch_cpus.iq.issued_per_cycle::samples     18874642                       # Number of insts issued each cycle
system.switch_cpus.iq.issued_per_cycle::mean     1.010581                       # Number of insts issued each cycle
system.switch_cpus.iq.issued_per_cycle::stdev     1.891373                       # Number of insts issued each cycle
system.switch_cpus.iq.issued_per_cycle::underflows            0      0.00%      0.00% # Number of insts issued each cycle
system.switch_cpus.iq.issued_per_cycle::0     13047366     69.13%     69.13% # Number of insts issued each cycle
system.switch_cpus.iq.issued_per_cycle::1      1500523      7.95%     77.08% # Number of insts issued each cycle
system.switch_cpus.iq.issued_per_cycle::2      1069192      5.66%     82.74% # Number of insts issued each cycle
system.switch_cpus.iq.issued_per_cycle::3       902034      4.78%     87.52% # Number of insts issued each cycle
system.switch_cpus.iq.issued_per_cycle::4       798197      4.23%     91.75% # Number of insts issued each cycle
system.switch_cpus.iq.issued_per_cycle::5       558506      2.96%     94.71% # Number of insts issued each cycle
system.switch_cpus.iq.issued_per_cycle::6       470257      2.49%     97.20% # Number of insts issued each cycle
system.switch_cpus.iq.issued_per_cycle::7       306045      1.62%     98.82% # Number of insts issued each cycle
system.switch_cpus.iq.issued_per_cycle::8       222522      1.18%    100.00% # Number of insts issued each cycle
system.switch_cpus.iq.issued_per_cycle::overflows            0      0.00%    100.00% # Number of insts issued each cycle
system.switch_cpus.iq.issued_per_cycle::min_value            0                       # Number of insts issued each cycle
system.switch_cpus.iq.issued_per_cycle::max_value            8                       # Number of insts issued each cycle
system.switch_cpus.iq.issued_per_cycle::total     18874642                       # Number of insts issued each cycle
system.switch_cpus.iq.rate                   1.007397                       # Inst issue rate
system.switch_cpus.iq.vec_alu_accesses              0                       # Number of vector alu accesses
system.switch_cpus.iq.vec_inst_queue_reads            0                       # Number of vector instruction queue reads
system.switch_cpus.iq.vec_inst_queue_wakeup_accesses            0                       # Number of vector instruction queue wakeup accesses
system.switch_cpus.iq.vec_inst_queue_writes            0                       # Number of vector instruction queue writes
system.switch_cpus.itb.rdAccesses                   0                       # TLB accesses on read requests
system.switch_cpus.itb.rdMisses                     0                       # TLB misses on read requests
system.switch_cpus.itb.wrAccesses             1748218                       # TLB accesses on write requests
system.switch_cpus.itb.wrMisses                   462                       # TLB misses on write requests
system.switch_cpus.memDep0.conflictingLoads        53769                       # Number of conflicting loads.
system.switch_cpus.memDep0.conflictingStores        19872                       # Number of conflicting stores.
system.switch_cpus.memDep0.insertedLoads      3303745                       # Number of loads inserted to the mem dependence unit.
system.switch_cpus.memDep0.insertedStores       429459                       # Number of stores inserted to the mem dependence unit.
system.switch_cpus.misc_regfile_reads         6138857                       # number of misc regfile reads
system.switch_cpus.misc_regfile_writes              1                       # number of misc regfile writes
system.switch_cpus.numCycles                 18934311                       # number of cpu cycles simulated
system.switch_cpus.numWorkItemsCompleted            0                       # number of work items this cpu completed
system.switch_cpus.numWorkItemsStarted              0                       # number of work items this cpu started
system.switch_cpus.rename.BlockCycles        11939982                       # Number of cycles rename is blocking
system.switch_cpus.rename.CommittedMaps      19414366                       # Number of HB maps that are committed
system.switch_cpus.rename.IQFullEvents        1423096                       # Number of times rename has blocked due to IQ full
system.switch_cpus.rename.IdleCycles          1539378                       # Number of cycles rename is idle
system.switch_cpus.rename.LQFullEvents         590641                       # Number of times rename has blocked due to LQ full
system.switch_cpus.rename.ROBFullEvents        153828                       # Number of times rename has blocked due to ROB full
system.switch_cpus.rename.RenameLookups      49416933                       # Number of register rename lookups that rename has made
system.switch_cpus.rename.RenamedInsts       20475973                       # Number of instructions processed by rename
system.switch_cpus.rename.RenamedOperands     23737845                       # Number of destination operands rename has renamed
system.switch_cpus.rename.RunCycles           2581035                       # Number of cycles rename is running
system.switch_cpus.rename.SQFullEvents         466778                       # Number of times rename has blocked due to SQ full
system.switch_cpus.rename.SquashCycles          77765                       # Number of cycles rename is squashing
system.switch_cpus.rename.UnblockCycles       2736478                       # Number of cycles rename is unblocking
system.switch_cpus.rename.UndoneMaps          4323347                       # Number of HB maps that are undone due to squashing
system.switch_cpus.rename.fp_rename_lookups     15650133                       # Number of floating rename lookups
system.switch_cpus.rename.int_rename_lookups     19364410                       # Number of integer rename lookups
system.switch_cpus.rename.serializeStallCycles            0                       # count of cycles rename stalled for serializing inst
system.switch_cpus.rename.serializingInsts            0                       # count of serializing insts renamed
system.switch_cpus.rename.skidInsts           4303175                       # count of insts added to the skid buffer
system.switch_cpus.rename.tempSerializingInsts            0                       # count of temporary serializing insts renamed
system.switch_cpus.rob.rob_reads             36917311                       # The number of ROB reads
system.switch_cpus.rob.rob_writes            40270624                       # The number of ROB writes
system.switch_cpus.timesIdled                     651                       # Number of times that the entire CPU went into an idle state and unscheduled itself
system.tol2bus.snoop_filter.hit_multi_requests            0                       # Number of requests hitting in the snoop filter with multiple (>1) holders of the requested data.
system.tol2bus.snoop_filter.hit_multi_snoops            0                       # Number of snoops hitting in the snoop filter with multiple (>1) holders of the requested data.
system.tol2bus.snoop_filter.hit_single_requests       205859                       # Number of requests hitting in the snoop filter with a single holder of the requested data.
system.tol2bus.snoop_filter.hit_single_snoops       106840                       # Number of snoops hitting in the snoop filter with a single holder of the requested data.
system.tol2bus.snoop_filter.tot_requests       413205                       # Total number of requests made to the snoop filter.
system.tol2bus.snoop_filter.tot_snoops         106840                       # Total number of snoops made to the snoop filter.
system.membus.pwrStateResidencyTicks::UNDEFINED 359103975005500                       # Cumulative time (in ticks) in various power states
system.membus.trans_dist::ReadResp             165342                       # Transaction distribution
system.membus.trans_dist::WritebackDirty        16308                       # Transaction distribution
system.membus.trans_dist::CleanEvict           153005                       # Transaction distribution
system.membus.trans_dist::ReadExReq              8798                       # Transaction distribution
system.membus.trans_dist::ReadExResp             8798                       # Transaction distribution
system.membus.trans_dist::ReadSharedReq        165343                       # Transaction distribution
system.membus.pkt_count_system.l2.mem_side::system.mem_ctrls.port       517594                       # Packet count per connected master and slave (bytes)
system.membus.pkt_count_system.l2.mem_side::total       517594                       # Packet count per connected master and slave (bytes)
system.membus.pkt_count::total                 517594                       # Packet count per connected master and slave (bytes)
system.membus.pkt_size_system.l2.mem_side::system.mem_ctrls.port     12188672                       # Cumulative packet size per connected master and slave (bytes)
system.membus.pkt_size_system.l2.mem_side::total     12188672                       # Cumulative packet size per connected master and slave (bytes)
system.membus.pkt_size::total                12188672                       # Cumulative packet size per connected master and slave (bytes)
system.membus.snoops                                0                       # Total snoops (count)
system.membus.snoopTraffic                          0                       # Total snoop traffic (bytes)
system.membus.snoop_fanout::samples            174141                       # Request fanout histogram
system.membus.snoop_fanout::mean                    0                       # Request fanout histogram
system.membus.snoop_fanout::stdev                   0                       # Request fanout histogram
system.membus.snoop_fanout::underflows              0      0.00%      0.00% # Request fanout histogram
system.membus.snoop_fanout::0                  174141    100.00%    100.00% # Request fanout histogram
system.membus.snoop_fanout::1                       0      0.00%    100.00% # Request fanout histogram
system.membus.snoop_fanout::overflows               0      0.00%    100.00% # Request fanout histogram
system.membus.snoop_fanout::min_value               0                       # Request fanout histogram
system.membus.snoop_fanout::max_value               0                       # Request fanout histogram
system.membus.snoop_fanout::total              174141                       # Request fanout histogram
system.membus.reqLayer2.occupancy           445379000                       # Layer occupancy (ticks)
system.membus.reqLayer2.utilization               4.7                       # Layer utilization (%)
system.membus.respLayer1.occupancy          932494250                       # Layer occupancy (ticks)
system.membus.respLayer1.utilization              9.8                       # Layer utilization (%)
system.switch_cpus.pwrStateResidencyTicks::OFF   9467165500                       # Cumulative time (in ticks) in various power states
system.switch_cpus.dtb.walker.pwrStateResidencyTicks::UNDEFINED 359103975005500                       # Cumulative time (in ticks) in various power states
system.switch_cpus.itb.walker.pwrStateResidencyTicks::UNDEFINED 359103975005500                       # Cumulative time (in ticks) in various power states
system.tol2bus.pwrStateResidencyTicks::UNDEFINED 359103975005500                       # Cumulative time (in ticks) in various power states
system.tol2bus.trans_dist::ReadResp            197270                       # Transaction distribution
system.tol2bus.trans_dist::WritebackDirty        43339                       # Transaction distribution
system.tol2bus.trans_dist::WritebackClean          478                       # Transaction distribution
system.tol2bus.trans_dist::CleanEvict          345532                       # Transaction distribution
system.tol2bus.trans_dist::ReadExReq            10074                       # Transaction distribution
system.tol2bus.trans_dist::ReadExResp           10074                       # Transaction distribution
system.tol2bus.trans_dist::ReadCleanReq           939                       # Transaction distribution
system.tol2bus.trans_dist::ReadSharedReq       196333                       # Transaction distribution
system.tol2bus.pkt_count_system.cpu.icache.mem_side::system.l2.cpu_side         2356                       # Packet count per connected master and slave (bytes)
system.tol2bus.pkt_count_system.cpu.dcache.mem_side::system.l2.cpu_side       618193                       # Packet count per connected master and slave (bytes)
system.tol2bus.pkt_count::total                620549                       # Packet count per connected master and slave (bytes)
system.tol2bus.pkt_size_system.cpu.icache.mem_side::system.l2.cpu_side        90688                       # Cumulative packet size per connected master and slave (bytes)
system.tol2bus.pkt_size_system.cpu.dcache.mem_side::system.l2.cpu_side     14939904                       # Cumulative packet size per connected master and slave (bytes)
system.tol2bus.pkt_size::total               15030592                       # Cumulative packet size per connected master and slave (bytes)
system.tol2bus.snoops                          183490                       # Total snoops (count)
system.tol2bus.snoopTraffic                   1043712                       # Total snoop traffic (bytes)
system.tol2bus.snoop_fanout::samples           390836                       # Request fanout histogram
system.tol2bus.snoop_fanout::mean            0.273363                       # Request fanout histogram
system.tol2bus.snoop_fanout::stdev           0.445686                       # Request fanout histogram
system.tol2bus.snoop_fanout::underflows             0      0.00%      0.00% # Request fanout histogram
system.tol2bus.snoop_fanout::0                 283996     72.66%     72.66% # Request fanout histogram
system.tol2bus.snoop_fanout::1                 106840     27.34%    100.00% # Request fanout histogram
system.tol2bus.snoop_fanout::2                      0      0.00%    100.00% # Request fanout histogram
system.tol2bus.snoop_fanout::3                      0      0.00%    100.00% # Request fanout histogram
system.tol2bus.snoop_fanout::4                      0      0.00%    100.00% # Request fanout histogram
system.tol2bus.snoop_fanout::overflows              0      0.00%    100.00% # Request fanout histogram
system.tol2bus.snoop_fanout::min_value              0                       # Request fanout histogram
system.tol2bus.snoop_fanout::max_value              1                       # Request fanout histogram
system.tol2bus.snoop_fanout::total             390836                       # Request fanout histogram
system.tol2bus.reqLayer0.occupancy          234109000                       # Layer occupancy (ticks)
system.tol2bus.reqLayer0.utilization              2.5                       # Layer utilization (%)
system.tol2bus.respLayer1.occupancy         309603000                       # Layer occupancy (ticks)
system.tol2bus.respLayer1.utilization             3.3                       # Layer utilization (%)
system.tol2bus.respLayer0.occupancy           1405999                       # Layer occupancy (ticks)
system.tol2bus.respLayer0.utilization             0.0                       # Layer utilization (%)
system.voltage_domain.voltage                       1                       # Voltage in Volts
system.clk_domain.clock                          1000                       # Clock period in ticks
system.l2.pwrStateResidencyTicks::UNDEFINED 359103975005500                       # Cumulative time (in ticks) in various power states
system.l2.demand_hits::.switch_cpus.inst           54                       # number of demand (read+write) hits
system.l2.demand_hits::.switch_cpus.data        33150                       # number of demand (read+write) hits
system.l2.demand_hits::total                    33204                       # number of demand (read+write) hits
system.l2.overall_hits::.switch_cpus.inst           54                       # number of overall hits
system.l2.overall_hits::.switch_cpus.data        33150                       # number of overall hits
system.l2.overall_hits::total                   33204                       # number of overall hits
system.l2.demand_misses::.cpu.inst                  2                       # number of demand (read+write) misses
system.l2.demand_misses::.cpu.data                  3                       # number of demand (read+write) misses
system.l2.demand_misses::.switch_cpus.inst          883                       # number of demand (read+write) misses
system.l2.demand_misses::.switch_cpus.data       173254                       # number of demand (read+write) misses
system.l2.demand_misses::total                 174142                       # number of demand (read+write) misses
system.l2.overall_misses::.cpu.inst                 2                       # number of overall misses
system.l2.overall_misses::.cpu.data                 3                       # number of overall misses
system.l2.overall_misses::.switch_cpus.inst          883                       # number of overall misses
system.l2.overall_misses::.switch_cpus.data       173254                       # number of overall misses
system.l2.overall_misses::total                174142                       # number of overall misses
system.l2.demand_miss_latency::.switch_cpus.inst     75234000                       # number of demand (read+write) miss cycles
system.l2.demand_miss_latency::.switch_cpus.data  14431265500                       # number of demand (read+write) miss cycles
system.l2.demand_miss_latency::total      14506499500                       # number of demand (read+write) miss cycles
system.l2.overall_miss_latency::.switch_cpus.inst     75234000                       # number of overall miss cycles
system.l2.overall_miss_latency::.switch_cpus.data  14431265500                       # number of overall miss cycles
system.l2.overall_miss_latency::total     14506499500                       # number of overall miss cycles
system.l2.demand_accesses::.cpu.inst                2                       # number of demand (read+write) accesses
system.l2.demand_accesses::.cpu.data                3                       # number of demand (read+write) accesses
system.l2.demand_accesses::.switch_cpus.inst          937                       # number of demand (read+write) accesses
system.l2.demand_accesses::.switch_cpus.data       206404                       # number of demand (read+write) accesses
system.l2.demand_accesses::total               207346                       # number of demand (read+write) accesses
system.l2.overall_accesses::.cpu.inst               2                       # number of overall (read+write) accesses
system.l2.overall_accesses::.cpu.data               3                       # number of overall (read+write) accesses
system.l2.overall_accesses::.switch_cpus.inst          937                       # number of overall (read+write) accesses
system.l2.overall_accesses::.switch_cpus.data       206404                       # number of overall (read+write) accesses
system.l2.overall_accesses::total              207346                       # number of overall (read+write) accesses
system.l2.demand_miss_rate::.cpu.inst               1                       # miss rate for demand accesses
system.l2.demand_miss_rate::.cpu.data               1                       # miss rate for demand accesses
system.l2.demand_miss_rate::.switch_cpus.inst     0.942369                       # miss rate for demand accesses
system.l2.demand_miss_rate::.switch_cpus.data     0.839393                       # miss rate for demand accesses
system.l2.demand_miss_rate::total            0.839862                       # miss rate for demand accesses
system.l2.overall_miss_rate::.cpu.inst              1                       # miss rate for overall accesses
system.l2.overall_miss_rate::.cpu.data              1                       # miss rate for overall accesses
system.l2.overall_miss_rate::.switch_cpus.inst     0.942369                       # miss rate for overall accesses
system.l2.overall_miss_rate::.switch_cpus.data     0.839393                       # miss rate for overall accesses
system.l2.overall_miss_rate::total           0.839862                       # miss rate for overall accesses
system.l2.demand_avg_miss_latency::.switch_cpus.inst 85202.718007                       # average overall miss latency
system.l2.demand_avg_miss_latency::.switch_cpus.data 83295.424637                       # average overall miss latency
system.l2.demand_avg_miss_latency::total 83302.704115                       # average overall miss latency
system.l2.overall_avg_miss_latency::.switch_cpus.inst 85202.718007                       # average overall miss latency
system.l2.overall_avg_miss_latency::.switch_cpus.data 83295.424637                       # average overall miss latency
system.l2.overall_avg_miss_latency::total 83302.704115                       # average overall miss latency
system.l2.blocked_cycles::no_mshrs                  0                       # number of cycles access was blocked
system.l2.blocked_cycles::no_targets                0                       # number of cycles access was blocked
system.l2.blocked::no_mshrs                         0                       # number of cycles access was blocked
system.l2.blocked::no_targets                       0                       # number of cycles access was blocked
system.l2.avg_blocked_cycles::no_mshrs            nan                       # average number of cycles each access was blocked
system.l2.avg_blocked_cycles::no_targets          nan                       # average number of cycles each access was blocked
system.l2.writebacks::.writebacks               16308                       # number of writebacks
system.l2.writebacks::total                     16308                       # number of writebacks
system.l2.demand_mshr_misses::.switch_cpus.inst          883                       # number of demand (read+write) MSHR misses
system.l2.demand_mshr_misses::.switch_cpus.data       173254                       # number of demand (read+write) MSHR misses
system.l2.demand_mshr_misses::total            174137                       # number of demand (read+write) MSHR misses
system.l2.overall_mshr_misses::.switch_cpus.inst          883                       # number of overall MSHR misses
system.l2.overall_mshr_misses::.switch_cpus.data       173254                       # number of overall MSHR misses
system.l2.overall_mshr_misses::total           174137                       # number of overall MSHR misses
system.l2.demand_mshr_miss_latency::.switch_cpus.inst     66404000                       # number of demand (read+write) MSHR miss cycles
system.l2.demand_mshr_miss_latency::.switch_cpus.data  12698745500                       # number of demand (read+write) MSHR miss cycles
system.l2.demand_mshr_miss_latency::total  12765149500                       # number of demand (read+write) MSHR miss cycles
system.l2.overall_mshr_miss_latency::.switch_cpus.inst     66404000                       # number of overall MSHR miss cycles
system.l2.overall_mshr_miss_latency::.switch_cpus.data  12698745500                       # number of overall MSHR miss cycles
system.l2.overall_mshr_miss_latency::total  12765149500                       # number of overall MSHR miss cycles
system.l2.demand_mshr_miss_rate::.switch_cpus.inst     0.942369                       # mshr miss rate for demand accesses
system.l2.demand_mshr_miss_rate::.switch_cpus.data     0.839393                       # mshr miss rate for demand accesses
system.l2.demand_mshr_miss_rate::total       0.839838                       # mshr miss rate for demand accesses
system.l2.overall_mshr_miss_rate::.switch_cpus.inst     0.942369                       # mshr miss rate for overall accesses
system.l2.overall_mshr_miss_rate::.switch_cpus.data     0.839393                       # mshr miss rate for overall accesses
system.l2.overall_mshr_miss_rate::total      0.839838                       # mshr miss rate for overall accesses
system.l2.demand_avg_mshr_miss_latency::.switch_cpus.inst 75202.718007                       # average overall mshr miss latency
system.l2.demand_avg_mshr_miss_latency::.switch_cpus.data 73295.540074                       # average overall mshr miss latency
system.l2.demand_avg_mshr_miss_latency::total 73305.210840                       # average overall mshr miss latency
system.l2.overall_avg_mshr_miss_latency::.switch_cpus.inst 75202.718007                       # average overall mshr miss latency
system.l2.overall_avg_mshr_miss_latency::.switch_cpus.data 73295.540074                       # average overall mshr miss latency
system.l2.overall_avg_mshr_miss_latency::total 73305.210840                       # average overall mshr miss latency
system.l2.replacements                         183490                       # number of replacements
system.l2.WritebackDirty_hits::.writebacks        27031                       # number of WritebackDirty hits
system.l2.WritebackDirty_hits::total            27031                       # number of WritebackDirty hits
system.l2.WritebackDirty_accesses::.writebacks        27031                       # number of WritebackDirty accesses(hits+misses)
system.l2.WritebackDirty_accesses::total        27031                       # number of WritebackDirty accesses(hits+misses)
system.l2.WritebackClean_hits::.writebacks          478                       # number of WritebackClean hits
system.l2.WritebackClean_hits::total              478                       # number of WritebackClean hits
system.l2.WritebackClean_accesses::.writebacks          478                       # number of WritebackClean accesses(hits+misses)
system.l2.WritebackClean_accesses::total          478                       # number of WritebackClean accesses(hits+misses)
system.l2.CleanEvict_mshr_misses::.writebacks        92664                       # number of CleanEvict MSHR misses
system.l2.CleanEvict_mshr_misses::total         92664                       # number of CleanEvict MSHR misses
system.l2.CleanEvict_mshr_miss_rate::.writebacks          inf                       # mshr miss rate for CleanEvict accesses
system.l2.CleanEvict_mshr_miss_rate::total          inf                       # mshr miss rate for CleanEvict accesses
system.l2.ReadExReq_hits::.switch_cpus.data         1276                       # number of ReadExReq hits
system.l2.ReadExReq_hits::total                  1276                       # number of ReadExReq hits
system.l2.ReadExReq_misses::.switch_cpus.data         8798                       # number of ReadExReq misses
system.l2.ReadExReq_misses::total                8798                       # number of ReadExReq misses
system.l2.ReadExReq_miss_latency::.switch_cpus.data    728360000                       # number of ReadExReq miss cycles
system.l2.ReadExReq_miss_latency::total     728360000                       # number of ReadExReq miss cycles
system.l2.ReadExReq_accesses::.switch_cpus.data        10074                       # number of ReadExReq accesses(hits+misses)
system.l2.ReadExReq_accesses::total             10074                       # number of ReadExReq accesses(hits+misses)
system.l2.ReadExReq_miss_rate::.switch_cpus.data     0.873337                       # miss rate for ReadExReq accesses
system.l2.ReadExReq_miss_rate::total         0.873337                       # miss rate for ReadExReq accesses
system.l2.ReadExReq_avg_miss_latency::.switch_cpus.data 82786.997045                       # average ReadExReq miss latency
system.l2.ReadExReq_avg_miss_latency::total 82786.997045                       # average ReadExReq miss latency
system.l2.ReadExReq_mshr_misses::.switch_cpus.data         8798                       # number of ReadExReq MSHR misses
system.l2.ReadExReq_mshr_misses::total           8798                       # number of ReadExReq MSHR misses
system.l2.ReadExReq_mshr_miss_latency::.switch_cpus.data    640380000                       # number of ReadExReq MSHR miss cycles
system.l2.ReadExReq_mshr_miss_latency::total    640380000                       # number of ReadExReq MSHR miss cycles
system.l2.ReadExReq_mshr_miss_rate::.switch_cpus.data     0.873337                       # mshr miss rate for ReadExReq accesses
system.l2.ReadExReq_mshr_miss_rate::total     0.873337                       # mshr miss rate for ReadExReq accesses
system.l2.ReadExReq_avg_mshr_miss_latency::.switch_cpus.data 72786.997045                       # average ReadExReq mshr miss latency
system.l2.ReadExReq_avg_mshr_miss_latency::total 72786.997045                       # average ReadExReq mshr miss latency
system.l2.ReadCleanReq_hits::.switch_cpus.inst           54                       # number of ReadCleanReq hits
system.l2.ReadCleanReq_hits::total                 54                       # number of ReadCleanReq hits
system.l2.ReadCleanReq_misses::.cpu.inst            2                       # number of ReadCleanReq misses
system.l2.ReadCleanReq_misses::.switch_cpus.inst          883                       # number of ReadCleanReq misses
system.l2.ReadCleanReq_misses::total              885                       # number of ReadCleanReq misses
system.l2.ReadCleanReq_miss_latency::.switch_cpus.inst     75234000                       # number of ReadCleanReq miss cycles
system.l2.ReadCleanReq_miss_latency::total     75234000                       # number of ReadCleanReq miss cycles
system.l2.ReadCleanReq_accesses::.cpu.inst            2                       # number of ReadCleanReq accesses(hits+misses)
system.l2.ReadCleanReq_accesses::.switch_cpus.inst          937                       # number of ReadCleanReq accesses(hits+misses)
system.l2.ReadCleanReq_accesses::total            939                       # number of ReadCleanReq accesses(hits+misses)
system.l2.ReadCleanReq_miss_rate::.cpu.inst            1                       # miss rate for ReadCleanReq accesses
[...]
system.cpu.icache.tags.data_accesses         13978887                       # Number of data accesses
system.cpu.dtb.walker.pwrStateResidencyTicks::UNDEFINED 359132653387500                       # Cumulative time (in ticks) in various power states
system.cpu.interrupts.clk_domain.clock           8000                       # Clock period in ticks
system.cpu.itb_walker_cache.pwrStateResidencyTicks::UNDEFINED 359132653387500                       # Cumulative time (in ticks) in various power states
system.cpu.itb_walker_cache.blocked_cycles::no_mshrs            0                       # number of cycles access was blocked
system.cpu.itb_walker_cache.blocked_cycles::no_targets            0                       # number of cycles access was blocked
system.cpu.itb_walker_cache.blocked::no_mshrs            0                       # number of cycles access was blocked
system.cpu.itb_walker_cache.blocked::no_targets            0                       # number of cycles access was blocked
system.cpu.itb_walker_cache.avg_blocked_cycles::no_mshrs          nan                       # average number of cycles each access was blocked
system.cpu.itb_walker_cache.avg_blocked_cycles::no_targets          nan                       # average number of cycles each access was blocked
system.cpu.itb_walker_cache.replacements            0                       # number of replacements
system.cpu.itb_walker_cache.tags.pwrStateResidencyTicks::UNDEFINED 359132653387500                       # Cumulative time (in ticks) in various power states
system.cpu.itb_walker_cache.tags.tagsinuse            0                       # Cycle average of tags in use
system.cpu.itb_walker_cache.tags.total_refs            0                       # Total number of references to valid blocks.
system.cpu.itb_walker_cache.tags.sampled_refs            0                       # Sample count of references to valid blocks.
system.cpu.itb_walker_cache.tags.avg_refs          nan                       # Average number of references to valid blocks.
system.cpu.itb_walker_cache.tags.warmup_cycle            0                       # Cycle when the warmup percentage was hit.
system.cpu.itb_walker_cache.tags.tag_accesses            0                       # Number of tag accesses
system.cpu.itb_walker_cache.tags.data_accesses            0                       # Number of data accesses
system.cpu.itb.walker.pwrStateResidencyTicks::UNDEFINED 359132653387500                       # Cumulative time (in ticks) in various power states
system.cpu.dtb_walker_cache.pwrStateResidencyTicks::UNDEFINED 359132653387500                       # Cumulative time (in ticks) in various power states
system.cpu.dtb_walker_cache.blocked_cycles::no_mshrs            0                       # number of cycles access was blocked
system.cpu.dtb_walker_cache.blocked_cycles::no_targets            0                       # number of cycles access was blocked
system.cpu.dtb_walker_cache.blocked::no_mshrs            0                       # number of cycles access was blocked
system.cpu.dtb_walker_cache.blocked::no_targets            0                       # number of cycles access was blocked
system.cpu.dtb_walker_cache.avg_blocked_cycles::no_mshrs          nan                       # average number of cycles each access was blocked
system.cpu.dtb_walker_cache.avg_blocked_cycles::no_targets          nan                       # average number of cycles each access was blocked
system.cpu.dtb_walker_cache.replacements            0                       # number of replacements
system.cpu.dtb_walker_cache.tags.pwrStateResidencyTicks::UNDEFINED 359132653387500                       # Cumulative time (in ticks) in various power states
system.cpu.dtb_walker_cache.tags.tagsinuse            0                       # Cycle average of tags in use
system.cpu.dtb_walker_cache.tags.total_refs            0                       # Total number of references to valid blocks.
system.cpu.dtb_walker_cache.tags.sampled_refs            0                       # Sample count of references to valid blocks.
system.cpu.dtb_walker_cache.tags.avg_refs          nan                       # Average number of references to valid blocks.
system.cpu.dtb_walker_cache.tags.warmup_cycle            0                       # Cycle when the warmup percentage was hit.
system.cpu.dtb_walker_cache.tags.tag_accesses            0                       # Number of tag accesses
system.cpu.dtb_walker_cache.tags.data_accesses            0                       # Number of data accesses
system.cpu.dcache.pwrStateResidencyTicks::UNDEFINED 359132653387500                       # Cumulative time (in ticks) in various power states
system.cpu.dcache.demand_hits::.cpu.data            1                       # number of demand (read+write) hits
system.cpu.dcache.demand_hits::.switch_cpus.data     10712659                       # number of demand (read+write) hits
system.cpu.dcache.demand_hits::total         10712660                       # number of demand (read+write) hits
system.cpu.dcache.overall_hits::.cpu.data            1                       # number of overall hits
system.cpu.dcache.overall_hits::.switch_cpus.data     10712659                       # number of overall hits
system.cpu.dcache.overall_hits::total        10712660                       # number of overall hits
system.cpu.dcache.demand_misses::.cpu.data            3                       # number of demand (read+write) misses
system.cpu.dcache.demand_misses::.switch_cpus.data      3243556                       # number of demand (read+write) misses
system.cpu.dcache.demand_misses::total        3243559                       # number of demand (read+write) misses
system.cpu.dcache.overall_misses::.cpu.data            3                       # number of overall misses
system.cpu.dcache.overall_misses::.switch_cpus.data      3243556                       # number of overall misses
system.cpu.dcache.overall_misses::total       3243559                       # number of overall misses
system.cpu.dcache.demand_miss_latency::.switch_cpus.data 220400810621                       # number of demand (read+write) miss cycles
system.cpu.dcache.demand_miss_latency::total 220400810621                       # number of demand (read+write) miss cycles
system.cpu.dcache.overall_miss_latency::.switch_cpus.data 220400810621                       # number of overall miss cycles
system.cpu.dcache.overall_miss_latency::total 220400810621                       # number of overall miss cycles
system.cpu.dcache.demand_accesses::.cpu.data            4                       # number of demand (read+write) accesses
system.cpu.dcache.demand_accesses::.switch_cpus.data     13956215                       # number of demand (read+write) accesses
system.cpu.dcache.demand_accesses::total     13956219                       # number of demand (read+write) accesses
system.cpu.dcache.overall_accesses::.cpu.data            4                       # number of overall (read+write) accesses
system.cpu.dcache.overall_accesses::.switch_cpus.data     13956215                       # number of overall (read+write) accesses
system.cpu.dcache.overall_accesses::total     13956219                       # number of overall (read+write) accesses
system.cpu.dcache.demand_miss_rate::.cpu.data     0.750000                       # miss rate for demand accesses
system.cpu.dcache.demand_miss_rate::.switch_cpus.data     0.232409                       # miss rate for demand accesses
system.cpu.dcache.demand_miss_rate::total     0.232410                       # miss rate for demand accesses
system.cpu.dcache.overall_miss_rate::.cpu.data     0.750000                       # miss rate for overall accesses
system.cpu.dcache.overall_miss_rate::.switch_cpus.data     0.232409                       # miss rate for overall accesses
system.cpu.dcache.overall_miss_rate::total     0.232410                       # miss rate for overall accesses
system.cpu.dcache.demand_avg_miss_latency::.switch_cpus.data 67950.363928                       # average overall miss latency
system.cpu.dcache.demand_avg_miss_latency::total 67950.301080                       # average overall miss latency
system.cpu.dcache.overall_avg_miss_latency::.switch_cpus.data 67950.363928                       # average overall miss latency
system.cpu.dcache.overall_avg_miss_latency::total 67950.301080                       # average overall miss latency
system.cpu.dcache.blocked_cycles::no_mshrs      4613232                       # number of cycles access was blocked
system.cpu.dcache.blocked_cycles::no_targets          140                       # number of cycles access was blocked
system.cpu.dcache.blocked::no_mshrs            127667                       # number of cycles access was blocked
system.cpu.dcache.blocked::no_targets               3                       # number of cycles access was blocked
system.cpu.dcache.avg_blocked_cycles::no_mshrs    36.134882                       # average number of cycles each access was blocked
system.cpu.dcache.avg_blocked_cycles::no_targets    46.666667                       # average number of cycles each access was blocked
system.cpu.dcache.writebacks::.writebacks       118169                       # number of writebacks
system.cpu.dcache.writebacks::total            118169                       # number of writebacks
system.cpu.dcache.demand_mshr_hits::.switch_cpus.data      2410354                       # number of demand (read+write) MSHR hits
system.cpu.dcache.demand_mshr_hits::total      2410354                       # number of demand (read+write) MSHR hits
system.cpu.dcache.overall_mshr_hits::.switch_cpus.data      2410354                       # number of overall MSHR hits
system.cpu.dcache.overall_mshr_hits::total      2410354                       # number of overall MSHR hits
system.cpu.dcache.demand_mshr_misses::.switch_cpus.data       833202                       # number of demand (read+write) MSHR misses
system.cpu.dcache.demand_mshr_misses::total       833202                       # number of demand (read+write) MSHR misses
system.cpu.dcache.overall_mshr_misses::.switch_cpus.data       833202                       # number of overall MSHR misses
system.cpu.dcache.overall_mshr_misses::total       833202                       # number of overall MSHR misses
system.cpu.dcache.demand_mshr_miss_latency::.switch_cpus.data  60835365123                       # number of demand (read+write) MSHR miss cycles
system.cpu.dcache.demand_mshr_miss_latency::total  60835365123                       # number of demand (read+write) MSHR miss cycles
system.cpu.dcache.overall_mshr_miss_latency::.switch_cpus.data  60835365123                       # number of overall MSHR miss cycles
system.cpu.dcache.overall_mshr_miss_latency::total  60835365123                       # number of overall MSHR miss cycles
system.cpu.dcache.demand_mshr_miss_rate::.switch_cpus.data     0.059701                       # mshr miss rate for demand accesses
system.cpu.dcache.demand_mshr_miss_rate::total     0.059701                       # mshr miss rate for demand accesses
system.cpu.dcache.overall_mshr_miss_rate::.switch_cpus.data     0.059701                       # mshr miss rate for overall accesses
system.cpu.dcache.overall_mshr_miss_rate::total     0.059701                       # mshr miss rate for overall accesses
system.cpu.dcache.demand_avg_mshr_miss_latency::.switch_cpus.data 73013.945145                       # average overall mshr miss latency
system.cpu.dcache.demand_avg_mshr_miss_latency::total 73013.945145                       # average overall mshr miss latency
system.cpu.dcache.overall_avg_mshr_miss_latency::.switch_cpus.data 73013.945145                       # average overall mshr miss latency
system.cpu.dcache.overall_avg_mshr_miss_latency::total 73013.945145                       # average overall mshr miss latency
system.cpu.dcache.replacements                 832181                       # number of replacements
system.cpu.dcache.ReadReq_hits::.cpu.data            1                       # number of ReadReq hits
system.cpu.dcache.ReadReq_hits::.switch_cpus.data      9374779                       # number of ReadReq hits
system.cpu.dcache.ReadReq_hits::total         9374780                       # number of ReadReq hits
system.cpu.dcache.ReadReq_misses::.cpu.data            3                       # number of ReadReq misses
system.cpu.dcache.ReadReq_misses::.switch_cpus.data      3202163                       # number of ReadReq misses
system.cpu.dcache.ReadReq_misses::total       3202166                       # number of ReadReq misses
system.cpu.dcache.ReadReq_miss_latency::.switch_cpus.data 217262341000                       # number of ReadReq miss cycles
system.cpu.dcache.ReadReq_miss_latency::total 217262341000                       # number of ReadReq miss cycles
system.cpu.dcache.ReadReq_accesses::.cpu.data            4                       # number of ReadReq accesses(hits+misses)
system.cpu.dcache.ReadReq_accesses::.switch_cpus.data     12576942                       # number of ReadReq accesses(hits+misses)
system.cpu.dcache.ReadReq_accesses::total     12576946                       # number of ReadReq accesses(hits+misses)
system.cpu.dcache.ReadReq_miss_rate::.cpu.data     0.750000                       # miss rate for ReadReq accesses
system.cpu.dcache.ReadReq_miss_rate::.switch_cpus.data     0.254606                       # miss rate for ReadReq accesses
system.cpu.dcache.ReadReq_miss_rate::total     0.254606                       # miss rate for ReadReq accesses
system.cpu.dcache.ReadReq_avg_miss_latency::.switch_cpus.data 67848.620136                       # average ReadReq miss latency
system.cpu.dcache.ReadReq_avg_miss_latency::total 67848.556571                       # average ReadReq miss latency
system.cpu.dcache.ReadReq_mshr_hits::.switch_cpus.data      2410006                       # number of ReadReq MSHR hits
system.cpu.dcache.ReadReq_mshr_hits::total      2410006                       # number of ReadReq MSHR hits
system.cpu.dcache.ReadReq_mshr_misses::.switch_cpus.data       792157                       # number of ReadReq MSHR misses
system.cpu.dcache.ReadReq_mshr_misses::total       792157                       # number of ReadReq MSHR misses
system.cpu.dcache.ReadReq_mshr_miss_latency::.switch_cpus.data  57757977500                       # number of ReadReq MSHR miss cycles
system.cpu.dcache.ReadReq_mshr_miss_latency::total  57757977500                       # number of ReadReq MSHR miss cycles
system.cpu.dcache.ReadReq_mshr_miss_rate::.switch_cpus.data     0.062985                       # mshr miss rate for ReadReq accesses
system.cpu.dcache.ReadReq_mshr_miss_rate::total     0.062985                       # mshr miss rate for ReadReq accesses
system.cpu.dcache.ReadReq_avg_mshr_miss_latency::.switch_cpus.data 72912.285696                       # average ReadReq mshr miss latency
system.cpu.dcache.ReadReq_avg_mshr_miss_latency::total 72912.285696                       # average ReadReq mshr miss latency
system.cpu.dcache.WriteReq_hits::.switch_cpus.data      1337880                       # number of WriteReq hits
system.cpu.dcache.WriteReq_hits::total        1337880                       # number of WriteReq hits
system.cpu.dcache.WriteReq_misses::.switch_cpus.data        41393                       # number of WriteReq misses
system.cpu.dcache.WriteReq_misses::total        41393                       # number of WriteReq misses
system.cpu.dcache.WriteReq_miss_latency::.switch_cpus.data   3138469621                       # number of WriteReq miss cycles
system.cpu.dcache.WriteReq_miss_latency::total   3138469621                       # number of WriteReq miss cycles
system.cpu.dcache.WriteReq_accesses::.switch_cpus.data      1379273                       # number of WriteReq accesses(hits+misses)
system.cpu.dcache.WriteReq_accesses::total      1379273                       # number of WriteReq accesses(hits+misses)
system.cpu.dcache.WriteReq_miss_rate::.switch_cpus.data     0.030011                       # miss rate for WriteReq accesses
system.cpu.dcache.WriteReq_miss_rate::total     0.030011                       # miss rate for WriteReq accesses
system.cpu.dcache.WriteReq_avg_miss_latency::.switch_cpus.data 75821.264972                       # average WriteReq miss latency
system.cpu.dcache.WriteReq_avg_miss_latency::total 75821.264972                       # average WriteReq miss latency
system.cpu.dcache.WriteReq_mshr_hits::.switch_cpus.data          348                       # number of WriteReq MSHR hits
system.cpu.dcache.WriteReq_mshr_hits::total          348                       # number of WriteReq MSHR hits
system.cpu.dcache.WriteReq_mshr_misses::.switch_cpus.data        41045                       # number of WriteReq MSHR misses
system.cpu.dcache.WriteReq_mshr_misses::total        41045                       # number of WriteReq MSHR misses
system.cpu.dcache.WriteReq_mshr_miss_latency::.switch_cpus.data   3077387623                       # number of WriteReq MSHR miss cycles
system.cpu.dcache.WriteReq_mshr_miss_latency::total   3077387623                       # number of WriteReq MSHR miss cycles
system.cpu.dcache.WriteReq_mshr_miss_rate::.switch_cpus.data     0.029758                       # mshr miss rate for WriteReq accesses
system.cpu.dcache.WriteReq_mshr_miss_rate::total     0.029758                       # mshr miss rate for WriteReq accesses
system.cpu.dcache.WriteReq_avg_mshr_miss_latency::.switch_cpus.data 74975.944037                       # average WriteReq mshr miss latency
system.cpu.dcache.WriteReq_avg_mshr_miss_latency::total 74975.944037                       # average WriteReq mshr miss latency
system.cpu.dcache.tags.pwrStateResidencyTicks::UNDEFINED 359132653387500                       # Cumulative time (in ticks) in various power states
system.cpu.dcache.tags.tagsinuse             0.108685                       # Cycle average of tags in use
system.cpu.dcache.tags.total_refs            11545865                       # Total number of references to valid blocks.
system.cpu.dcache.tags.sampled_refs            833205                       # Sample count of references to valid blocks.
system.cpu.dcache.tags.avg_refs             13.857172                       # Average number of references to valid blocks.
system.cpu.dcache.tags.warmup_cycle      359094507845000                       # Cycle when the warmup percentage was hit.
system.cpu.dcache.tags.occ_blocks::.cpu.data     0.000002                       # Average occupied blocks per requestor
system.cpu.dcache.tags.occ_blocks::.switch_cpus.data     0.108683                       # Average occupied blocks per requestor
system.cpu.dcache.tags.occ_percent::.cpu.data     0.000000                       # Average percentage of cache occupancy
system.cpu.dcache.tags.occ_percent::.switch_cpus.data     0.000106                       # Average percentage of cache occupancy
system.cpu.dcache.tags.occ_percent::total     0.000106                       # Average percentage of cache occupancy
system.cpu.dcache.tags.occ_task_id_blocks::1024         1024                       # Occupied blocks per task id
system.cpu.dcache.tags.age_task_id_blocks_1024::0          238                       # Occupied blocks per task id
system.cpu.dcache.tags.age_task_id_blocks_1024::1          708                       # Occupied blocks per task id
system.cpu.dcache.tags.age_task_id_blocks_1024::2           78                       # Occupied blocks per task id
system.cpu.dcache.tags.occ_task_id_percent::1024            1                       # Percentage of cache occupancy per task id
system.cpu.dcache.tags.tag_accesses          28745643                       # Number of tag accesses
system.cpu.dcache.tags.data_accesses         28745643                       # Number of data accesses

---------- End Simulation Statistics   ----------
