
---------- Begin Simulation Statistics ----------
final_tick                               133782805982000                       # Number of ticks from beginning of simulation (restored from checkpoints and never reset)
host_inst_rate                                  55136                       # Simulator instruction rate (inst/s)
host_mem_usage                                 795516                       # Number of bytes of host memory used
host_op_rate                                    98113                       # Simulator op (including micro ops) rate (op/s)
host_seconds                                   181.37                       # Real time elapsed on the host
host_tick_rate                               15429775                       # Simulator tick rate (ticks/s)
sim_freq                                 1000000000000                       # Frequency of simulated ticks
sim_insts                                    10000009                       # Number of instructions simulated
sim_ops                                      17794903                       # Number of ops (including micro ops) simulated
sim_seconds                                  0.002799                       # Number of seconds simulated
sim_ticks                                  2798509500                       # Number of ticks simulated
system.cpu.Branches                                 3                       # Number of branches fetched
system.cpu.committedInsts                           9                       # Number of instructions committed
system.cpu.committedOps                            20                       # Number of ops (including micro ops) committed
system.cpu.dtb.rdAccesses                           1                       # TLB accesses on read requests
system.cpu.dtb.rdMisses                             0                       # TLB misses on read requests
system.cpu.dtb.wrAccesses                           5                       # TLB accesses on write requests
system.cpu.dtb.wrMisses                             0                       # TLB misses on write requests
system.cpu.idle_fraction                            0                       # Percentage of idle cycles
system.cpu.itb.rdAccesses                           0                       # TLB accesses on read requests
system.cpu.itb.rdMisses                             0                       # TLB misses on read requests
system.cpu.itb.wrAccesses                          10                       # TLB accesses on write requests
system.cpu.itb.wrMisses                             0                       # TLB misses on write requests
system.cpu.not_idle_fraction                        1                       # Percentage of non-idle cycles
system.cpu.numCycles                               21                       # number of cpu cycles simulated
system.cpu.numWorkItemsCompleted                    0                       # number of work items this cpu completed
system.cpu.numWorkItemsStarted                      0                       # number of work items this cpu started
system.cpu.num_busy_cycles                         21                       # Number of busy cycles
system.cpu.num_cc_register_reads                    5                       # number of times the CC registers were read
system.cpu.num_conditional_control_insts            1                       # number of instructions that are conditional controls
system.cpu.num_fp_alu_accesses                      1                       # Number of float alu accesses
system.cpu.num_fp_insts                             1                       # number of float instructions
system.cpu.num_fp_register_reads                    1                       # number of times the floating registers were read
system.cpu.num_fp_register_writes                   0                       # number of times the floating registers were written
system.cpu.num_func_calls                           0                       # number of times a function call or return occured
system.cpu.num_idle_cycles                          0                       # Number of idle cycles
system.cpu.num_int_alu_accesses                    20                       # Number of integer alu accesses
system.cpu.num_int_insts                           20                       # number of integer instructions
system.cpu.num_int_register_reads                  40                       # number of times the integer registers were read
system.cpu.num_int_register_writes                 12                       # number of times the integer registers were written
system.cpu.num_load_insts                           1                       # Number of load instructions
system.cpu.num_mem_refs                             6                       # number of memory refs
system.cpu.num_store_insts                          5                       # Number of store instructions
system.cpu.num_vec_alu_accesses                     0                       # Number of vector alu accesses
system.cpu.num_vec_insts                            0                       # number of vector instructions
system.cpu.num_vec_register_reads                   0                       # number of times the vector registers were read
system.cpu.num_vec_register_writes                  0                       # number of times the vector registers were written
system.cpu.op_class::No_OpClass                     0      0.00%      0.00% # Class of executed instruction
system.cpu.op_class::IntAlu                        13     65.00%     65.00% # Class of executed instruction
system.cpu.op_class::IntMult                        0      0.00%     65.00% # Class of executed instruction
system.cpu.op_class::IntDiv                         0      0.00%     65.00% # Class of executed instruction
system.cpu.op_class::FloatAdd                       0      0.00%     65.00% # Class of executed instruction
system.cpu.op_class::FloatCmp                       0      0.00%     65.00% # Class of executed instruction
system.cpu.op_class::FloatCvt                       0      0.00%     65.00% # Class of executed instruction
system.cpu.op_class::FloatMult                      0      0.00%     65.00% # Class of executed instruction
system.cpu.op_class::FloatMultAcc                   0      0.00%     65.00% # Class of executed instruction
system.cpu.op_class::FloatDiv                       0      0.00%     65.00% # Class of executed instruction
system.cpu.op_class::FloatMisc                      0      0.00%     65.00% # Class of executed instruction
system.cpu.op_class::FloatSqrt                      0      0.00%     65.00% # Class of executed instruction
system.cpu.op_class::SimdAdd                        0      0.00%     65.00% # Class of executed instruction
system.cpu.op_class::SimdAddAcc                     0      0.00%     65.00% # Class of executed instruction
system.cpu.op_class::SimdAlu                        0      0.00%     65.00% # Class of executed instruction
system.cpu.op_class::SimdCmp                        0      0.00%     65.00% # Class of executed instruction
system.cpu.op_class::SimdCvt                        0      0.00%     65.00% # Class of executed instruction
system.cpu.op_class::SimdMisc                       1      5.00%     70.00% # Class of executed instruction
system.cpu.op_class::SimdMult                       0      0.00%     70.00% # Class of executed instruction
system.cpu.op_class::SimdMultAcc                    0      0.00%     70.00% # Class of executed instruction
system.cpu.op_class::SimdShift                      0      0.00%     70.00% # Class of executed instruction
system.cpu.op_class::SimdShiftAcc                   0      0.00%     70.00% # Class of executed instruction
system.cpu.op_class::SimdDiv                        0      0.00%     70.00% # Class of executed instruction
system.cpu.op_class::SimdSqrt                       0      0.00%     70.00% # Class of executed instruction
system.cpu.op_class::SimdFloatAdd                   0      0.00%     70.00% # Class of executed instruction
system.cpu.op_class::SimdFloatAlu                   0      0.00%     70.00% # Class of executed instruction
system.cpu.op_class::SimdFloatCmp                   0      0.00%     70.00% # Class of executed instruction
system.cpu.op_class::SimdFloatCvt                   0      0.00%     70.00% # Class of executed instruction
system.cpu.op_class::SimdFloatDiv                   0      0.00%     70.00% # Class of executed instruction
system.cpu.op_class::SimdFloatMisc                  0      0.00%     70.00% # Class of executed instruction
system.cpu.op_class::SimdFloatMult                  0      0.00%     70.00% # Class of executed instruction
system.cpu.op_class::SimdFloatMultAcc               0      0.00%     70.00% # Class of executed instruction
system.cpu.op_class::SimdFloatSqrt                  0      0.00%     70.00% # Class of executed instruction
system.cpu.op_class::SimdReduceAdd                  0      0.00%     70.00% # Class of executed instruction
system.cpu.op_class::SimdReduceAlu                  0      0.00%     70.00% # Class of executed instruction
system.cpu.op_class::SimdReduceCmp                  0      0.00%     70.00% # Class of executed instruction
system.cpu.op_class::SimdFloatReduceAdd             0      0.00%     70.00% # Class of executed instruction
system.cpu.op_class::SimdFloatReduceCmp             0      0.00%     70.00% # Class of executed instruction
system.cpu.op_class::SimdAes                        0      0.00%     70.00% # Class of executed instruction
system.cpu.op_class::SimdAesMix                     0      0.00%     70.00% # Class of executed instruction
system.cpu.op_class::SimdSha1Hash                   0      0.00%     70.00% # Class of executed instruction
system.cpu.op_class::SimdSha1Hash2                  0      0.00%     70.00% # Class of executed instruction
system.cpu.op_class::SimdSha256Hash                 0      0.00%     70.00% # Class of executed instruction
system.cpu.op_class::SimdSha256Hash2                0      0.00%     70.00% # Class of executed instruction
system.cpu.op_class::SimdShaSigma2                  0      0.00%     70.00% # Class of executed instruction
system.cpu.op_class::SimdShaSigma3                  0      0.00%     70.00% # Class of executed instruction
system.cpu.op_class::SimdPredAlu                    0      0.00%     70.00% # Class of executed instruction
system.cpu.op_class::MemRead                        1      5.00%     75.00% # Class of executed instruction
system.cpu.op_class::MemWrite                       5     25.00%    100.00% # Class of executed instruction
system.cpu.op_class::FloatMemRead                   0      0.00%    100.00% # Class of executed instruction
system.cpu.op_class::FloatMemWrite                  0      0.00%    100.00% # Class of executed instruction
system.cpu.op_class::IprAccess                      0      0.00%    100.00% # Class of executed instruction
system.cpu.op_class::InstPrefetch                   0      0.00%    100.00% # Class of executed instruction
system.cpu.op_class::total                         20                       # Class of executed instruction
system.cpu.workload.numSyscalls                     0                       # Number of system calls
system.membus.snoop_filter.hit_multi_requests            0                       # Number of requests hitting in the snoop filter with multiple (>1) holders of the requested data.
system.membus.snoop_filter.hit_multi_snoops            0                       # Number of snoops hitting in the snoop filter with multiple (>1) holders of the requested data.
system.membus.snoop_filter.hit_single_requests         1261                       # Number of requests hitting in the snoop filter with a single holder of the requested data.
system.membus.snoop_filter.hit_single_snoops            0                       # Number of snoops hitting in the snoop filter with a single holder of the requested data.
system.membus.snoop_filter.tot_requests          5567                       # Total number of requests made to the snoop filter.
system.membus.snoop_filter.tot_snoops               0                       # Total number of snoops made to the snoop filter.
system.switch_cpus.branchPred.BTBCorrect            0                       # Number of correct BTB predictions (this stat may not work properly.
system.switch_cpus.branchPred.BTBHitPct      0.000000                       # BTB Hit Percentage
system.switch_cpus.branchPred.BTBHits               0                       # Number of BTB hits
system.switch_cpus.branchPred.BTBLookups       625245                       # Number of BTB lookups
system.switch_cpus.branchPred.RASInCorrect            1                       # Number of incorrect RAS predictions.
system.switch_cpus.branchPred.condIncorrect        30871                       # Number of conditional branches incorrect
system.switch_cpus.branchPred.condPredicted       876588                       # Number of conditional branches predicted
system.switch_cpus.branchPred.indirectHits       488961                       # Number of indirect target hits.
system.switch_cpus.branchPred.indirectLookups       625245                       # Number of indirect predictor lookups.
system.switch_cpus.branchPred.indirectMisses       136284                       # Number of indirect misses.
system.switch_cpus.branchPred.lookups          993970                       # Number of BP lookups
system.switch_cpus.branchPred.usedRAS           58237                       # Number of times the RAS was used to get a target.
system.switch_cpus.branchPredindirectMispredicted          253                       # Number of mispredicted indirect branches.
system.switch_cpus.cc_regfile_reads           4663317                       # number of cc regfile reads
system.switch_cpus.cc_regfile_writes          3460345                       # number of cc regfile writes
system.switch_cpus.commit.amos                      0                       # Number of atomic instructions committed
system.switch_cpus.commit.branchMispredicts        30873                       # The number of times a branch was mispredicted
system.switch_cpus.commit.branches             915063                       # Number of branches committed
system.switch_cpus.commit.bw_lim_events       1504475                       # number cycles where commit BW limit reached
system.switch_cpus.commit.commitSquashedInsts      2960886                       # The number of squashed insts skipped by commit
system.switch_cpus.commit.committedInsts     10000000                       # Number of instructions committed
system.switch_cpus.commit.committedOps       17794883                       # Number of ops (including micro ops) committed
system.switch_cpus.commit.committed_per_cycle::samples      5211472                       # Number of insts commited each cycle
system.switch_cpus.commit.committed_per_cycle::mean     3.414560                       # Number of insts commited each cycle
system.switch_cpus.commit.committed_per_cycle::stdev     3.296737                       # Number of insts commited each cycle
system.switch_cpus.commit.committed_per_cycle::underflows            0      0.00%      0.00% # Number of insts commited each cycle
system.switch_cpus.commit.committed_per_cycle::0      1358254     26.06%     26.06% # Number of insts commited each cycle
system.switch_cpus.commit.committed_per_cycle::1      1127012     21.63%     47.69% # Number of insts commited each cycle
system.switch_cpus.commit.committed_per_cycle::2       247878      4.76%     52.44% # Number of insts commited each cycle
system.switch_cpus.commit.committed_per_cycle::3       322205      6.18%     58.63% # Number of insts commited each cycle
system.switch_cpus.commit.committed_per_cycle::4       318416      6.11%     64.74% # Number of insts commited each cycle
system.switch_cpus.commit.committed_per_cycle::5       175144      3.36%     68.10% # Number of insts commited each cycle
system.switch_cpus.commit.committed_per_cycle::6        86300      1.66%     69.75% # Number of insts commited each cycle
system.switch_cpus.commit.committed_per_cycle::7        71788      1.38%     71.13% # Number of insts commited each cycle
system.switch_cpus.commit.committed_per_cycle::8      1504475     28.87%    100.00% # Number of insts commited each cycle
system.switch_cpus.commit.committed_per_cycle::overflows            0      0.00%    100.00% # Number of insts commited each cycle
system.switch_cpus.commit.committed_per_cycle::min_value            0                       # Number of insts commited each cycle
system.switch_cpus.commit.committed_per_cycle::max_value            8                       # Number of insts commited each cycle
system.switch_cpus.commit.committed_per_cycle::total      5211472                       # Number of insts commited each cycle
system.switch_cpus.commit.fp_insts            8792734                       # Number of committed floating point instructions.
system.switch_cpus.commit.function_calls        56948                       # Number of function calls committed.
system.switch_cpus.commit.int_insts          10970465                       # Number of committed integer instructions.
system.switch_cpus.commit.loads               2258934                       # Number of loads committed
system.switch_cpus.commit.membars                   0                       # Number of memory barriers committed
system.switch_cpus.commit.op_class_0::No_OpClass         1643      0.01%      0.01% # Class of committed instruction
system.switch_cpus.commit.op_class_0::IntAlu      9447535     53.09%     53.10% # Class of committed instruction
system.switch_cpus.commit.op_class_0::IntMult            0      0.00%     53.10% # Class of committed instruction
system.switch_cpus.commit.op_class_0::IntDiv            0      0.00%     53.10% # Class of committed instruction
system.switch_cpus.commit.op_class_0::FloatAdd       796801      4.48%     57.58% # Class of committed instruction
system.switch_cpus.commit.op_class_0::FloatCmp            0      0.00%     57.58% # Class of committed instruction
system.switch_cpus.commit.op_class_0::FloatCvt            0      0.00%     57.58% # Class of committed instruction
system.switch_cpus.commit.op_class_0::FloatMult            0      0.00%     57.58% # Class of committed instruction
system.switch_cpus.commit.op_class_0::FloatMultAcc            0      0.00%     57.58% # Class of committed instruction
system.switch_cpus.commit.op_class_0::FloatDiv            0      0.00%     57.58% # Class of committed instruction
system.switch_cpus.commit.op_class_0::FloatMisc            0      0.00%     57.58% # Class of committed instruction
system.switch_cpus.commit.op_class_0::FloatSqrt            0      0.00%     57.58% # Class of committed instruction
system.switch_cpus.commit.op_class_0::SimdAdd            0      0.00%     57.58% # Class of committed instruction
system.switch_cpus.commit.op_class_0::SimdAddAcc            0      0.00%     57.58% # Class of committed instruction
system.switch_cpus.commit.op_class_0::SimdAlu      1377836      7.74%     65.32% # Class of committed instruction
system.switch_cpus.commit.op_class_0::SimdCmp            0      0.00%     65.32% # Class of committed instruction
system.switch_cpus.commit.op_class_0::SimdCvt            0      0.00%     65.32% # Class of committed instruction
system.switch_cpus.commit.op_class_0::SimdMisc       399696      2.25%     67.57% # Class of committed instruction
system.switch_cpus.commit.op_class_0::SimdMult            0      0.00%     67.57% # Class of committed instruction
system.switch_cpus.commit.op_class_0::SimdMultAcc            0      0.00%     67.57% # Class of committed instruction
system.switch_cpus.commit.op_class_0::SimdShift            0      0.00%     67.57% # Class of committed instruction
system.switch_cpus.commit.op_class_0::SimdShiftAcc            0      0.00%     67.57% # Class of committed instruction
system.switch_cpus.commit.op_class_0::SimdDiv            0      0.00%     67.57% # Class of committed instruction
system.switch_cpus.commit.op_class_0::SimdSqrt            0      0.00%     67.57% # Class of committed instruction
system.switch_cpus.commit.op_class_0::SimdFloatAdd      1425744      8.01%     75.58% # Class of committed instruction
system.switch_cpus.commit.op_class_0::SimdFloatAlu            0      0.00%     75.58% # Class of committed instruction
system.switch_cpus.commit.op_class_0::SimdFloatCmp            0      0.00%     75.58% # Class of committed instruction
system.switch_cpus.commit.op_class_0::SimdFloatCvt       685988      3.85%     79.43% # Class of committed instruction
system.switch_cpus.commit.op_class_0::SimdFloatDiv        56948      0.32%     79.75% # Class of committed instruction
system.switch_cpus.commit.op_class_0::SimdFloatMisc            0      0.00%     79.75% # Class of committed instruction
system.switch_cpus.commit.op_class_0::SimdFloatMult       658816      3.70%     83.46% # Class of committed instruction
system.switch_cpus.commit.op_class_0::SimdFloatMultAcc            0      0.00%     83.46% # Class of committed instruction
system.switch_cpus.commit.op_class_0::SimdFloatSqrt            0      0.00%     83.46% # Class of committed instruction
system.switch_cpus.commit.op_class_0::SimdReduceAdd            0      0.00%     83.46% # Class of committed instruction
system.switch_cpus.commit.op_class_0::SimdReduceAlu            0      0.00%     83.46% # Class of committed instruction
system.switch_cpus.commit.op_class_0::SimdReduceCmp            0      0.00%     83.46% # Class of committed instruction
system.switch_cpus.commit.op_class_0::SimdFloatReduceAdd            0      0.00%     83.46% # Class of committed instruction
system.switch_cpus.commit.op_class_0::SimdFloatReduceCmp            0      0.00%     83.46% # Class of committed instruction
system.switch_cpus.commit.op_class_0::SimdAes            0      0.00%     83.46% # Class of committed instruction
system.switch_cpus.commit.op_class_0::SimdAesMix            0      0.00%     83.46% # Class of committed instruction
system.switch_cpus.commit.op_class_0::SimdSha1Hash            0      0.00%     83.46% # Class of committed instruction
system.switch_cpus.commit.op_class_0::SimdSha1Hash2            0      0.00%     83.46% # Class of committed instruction
system.switch_cpus.commit.op_class_0::SimdSha256Hash            0      0.00%     83.46% # Class of committed instruction
system.switch_cpus.commit.op_class_0::SimdSha256Hash2            0      0.00%     83.46% # Class of committed instruction
system.switch_cpus.commit.op_class_0::SimdShaSigma2            0      0.00%     83.46% # Class of committed instruction
system.switch_cpus.commit.op_class_0::SimdShaSigma3            0      0.00%     83.46% # Class of committed instruction
system.switch_cpus.commit.op_class_0::SimdPredAlu            0      0.00%     83.46% # Class of committed instruction
system.switch_cpus.commit.op_class_0::MemRead       860976      4.84%     88.29% # Class of committed instruction
system.switch_cpus.commit.op_class_0::MemWrite       512637      2.88%     91.18% # Class of committed instruction
system.switch_cpus.commit.op_class_0::FloatMemRead      1397958      7.86%     99.03% # Class of committed instruction
system.switch_cpus.commit.op_class_0::FloatMemWrite       172305      0.97%    100.00% # Class of committed instruction
system.switch_cpus.commit.op_class_0::IprAccess            0      0.00%    100.00% # Class of committed instruction
system.switch_cpus.commit.op_class_0::InstPrefetch            0      0.00%    100.00% # Class of committed instruction
system.switch_cpus.commit.op_class_0::total     17794883                       # Class of committed instruction
system.switch_cpus.commit.refs                2943876                       # Number of memory references committed
system.switch_cpus.commit.swp_count                 0                       # Number of s/w prefetches committed
system.switch_cpus.commit.vec_insts                 0                       # Number of committed Vector instructions.
system.switch_cpus.committedInsts            10000000                       # Number of Instructions Simulated
system.switch_cpus.committedOps              17794883                       # Number of Ops (including micro ops) Simulated
system.switch_cpus.cpi                       0.559700                       # CPI: Cycles Per Instruction
system.switch_cpus.cpi_total                 0.559700                       # CPI: Total CPI of All Threads
system.switch_cpus.decode.BlockedCycles       1346300                       # Number of cycles decode is blocked
system.switch_cpus.decode.DecodedInsts       21040870                       # Number of instructions handled by decode
system.switch_cpus.decode.IdleCycles          1119465                       # Number of cycles decode is idle
system.switch_cpus.decode.RunCycles           2780542                       # Number of cycles decode is running
system.switch_cpus.decode.SquashCycles          30881                       # Number of cycles decode is squashing
system.switch_cpus.decode.UnblockCycles        315841                       # Number of cycles decode is unblocking
system.switch_cpus.dtb.rdAccesses             2481941                       # TLB accesses on read requests
system.switch_cpus.dtb.rdMisses                    75                       # TLB misses on read requests
system.switch_cpus.dtb.wrAccesses              689477                       # TLB accesses on write requests
system.switch_cpus.dtb.wrMisses                     3                       # TLB misses on write requests
system.switch_cpus.fetch.Branches              993970                       # Number of branches that fetch encountered
system.switch_cpus.fetch.CacheLines           1391922                       # Number of cache lines fetched
system.switch_cpus.fetch.Cycles               4147267                       # Number of cycles fetch has run and was not squashing or blocked
system.switch_cpus.fetch.IcacheSquashes          9420                       # Number of outstanding Icache misses that were squashed
system.switch_cpus.fetch.Insts               12043672                       # Number of instructions fetch has processed
system.switch_cpus.fetch.MiscStallCycles            1                       # Number of cycles fetch has spent waiting on interrupts, or bad addresses, or out of MSHRs
system.switch_cpus.fetch.PendingTrapStallCycles           13                       # Number of stall cycles due to pending traps
system.switch_cpus.fetch.SquashCycles           61762                       # Number of cycles fetch has spent squashing
system.switch_cpus.fetch.branchRate          0.177590                       # Number of branch fetches per cycle
system.switch_cpus.fetch.icacheStallCycles      1414878                       # Number of cycles fetch is stalled on an Icache miss
system.switch_cpus.fetch.predictedBranches       547198                       # Number of branches that fetch has predicted taken
system.switch_cpus.fetch.rate                2.151809                       # Number of inst fetches per cycle
system.switch_cpus.fetch.rateDist::samples      5593040                       # Number of instructions fetched each cycle (Total)
system.switch_cpus.fetch.rateDist::mean      3.812840                       # Number of instructions fetched each cycle (Total)
system.switch_cpus.fetch.rateDist::stdev     3.607508                       # Number of instructions fetched each cycle (Total)
system.switch_cpus.fetch.rateDist::underflows            0      0.00%      0.00% # Number of instructions fetched each cycle (Total)
system.switch_cpus.fetch.rateDist::0          2258513     40.38%     40.38% # Number of instructions fetched each cycle (Total)
system.switch_cpus.fetch.rateDist::1           201878      3.61%     43.99% # Number of instructions fetched each cycle (Total)
system.switch_cpus.fetch.rateDist::2             8015      0.14%     44.13% # Number of instructions fetched each cycle (Total)
system.switch_cpus.fetch.rateDist::3           388081      6.94%     51.07% # Number of instructions fetched each cycle (Total)
system.switch_cpus.fetch.rateDist::4           298911      5.34%     56.42% # Number of instructions fetched each cycle (Total)
system.switch_cpus.fetch.rateDist::5           130345      2.33%     58.75% # Number of instructions fetched each cycle (Total)
system.switch_cpus.fetch.rateDist::6            50852      0.91%     59.66% # Number of instructions fetched each cycle (Total)
system.switch_cpus.fetch.rateDist::7           260824      4.66%     64.32% # Number of instructions fetched each cycle (Total)
system.switch_cpus.fetch.rateDist::8          1995621     35.68%    100.00% # Number of instructions fetched each cycle (Total)
system.switch_cpus.fetch.rateDist::overflows            0      0.00%    100.00% # Number of instructions fetched each cycle (Total)
system.switch_cpus.fetch.rateDist::min_value            0                       # Number of instructions fetched each cycle (Total)
system.switch_cpus.fetch.rateDist::max_value            8                       # Number of instructions fetched each cycle (Total)
system.switch_cpus.fetch.rateDist::total      5593040                       # Number of instructions fetched each cycle (Total)
system.switch_cpus.fp_regfile_reads          15787859                       # number of floating regfile reads
system.switch_cpus.fp_regfile_writes          8940837                       # number of floating regfile writes
system.switch_cpus.idleCycles                    3958                       # Total number of cycles that the CPU has spent unscheduled due to idling
system.switch_cpus.iew.branchMispredicts        30993                       # Number of branch mispredicts detected at execute
system.switch_cpus.iew.exec_branches           919617                       # Number of branches executed
system.switch_cpus.iew.exec_nop                     0                       # number of nop insts executed
system.switch_cpus.iew.exec_rate             3.434653                       # Inst execution rate
system.switch_cpus.iew.exec_refs              3164309                       # number of memory reference insts executed
system.switch_cpus.iew.exec_stores             689477                       # Number of stores executed
system.switch_cpus.iew.exec_swp                     0                       # number of swp insts executed
system.switch_cpus.iew.iewBlockCycles          900183                       # Number of cycles IEW is blocking
system.switch_cpus.iew.iewDispLoadInsts       2650149                       # Number of dispatched load instructions
system.switch_cpus.iew.iewDispNonSpecInsts            0                       # Number of dispatched non-speculative instructions
system.switch_cpus.iew.iewDispSquashedInsts            5                       # Number of squashed instructions skipped by dispatch
system.switch_cpus.iew.iewDispStoreInsts       692182                       # Number of dispatched store instructions
system.switch_cpus.iew.iewDispatchedInsts     20755869                       # Number of instructions dispatched to IQ
system.switch_cpus.iew.iewExecLoadInsts       2474832                       # Number of load instructions executed
system.switch_cpus.iew.iewExecSquashedInsts        38882                       # Number of squashed instructions skipped in execute
system.switch_cpus.iew.iewExecutedInsts      19223745                       # Number of executed instructions
system.switch_cpus.iew.iewIQFullEvents           4667                       # Number of times the IQ has become full, causing a stall
system.switch_cpus.iew.iewIdleCycles                0                       # Number of cycles IEW is idle
system.switch_cpus.iew.iewLSQFullEvents             0                       # Number of times the LSQ has become full, causing a stall
system.switch_cpus.iew.iewSquashCycles          30881                       # Number of cycles IEW is squashing
system.switch_cpus.iew.iewUnblockCycles          5767                       # Number of cycles IEW is unblocking
system.switch_cpus.iew.lsq.thread0.blockedLoads            0                       # Number of blocked loads due to partial load-store forwarding
system.switch_cpus.iew.lsq.thread0.cacheBlocked            4                       # Number of times an access to memory failed due to the cache being blocked
system.switch_cpus.iew.lsq.thread0.forwLoads        59143                       # Number of loads that had data forwarded from stores
system.switch_cpus.iew.lsq.thread0.ignoredResponses            5                       # Number of memory responses ignored because the instruction is squashed
system.switch_cpus.iew.lsq.thread0.invAddrLoads            0                       # Number of loads ignored due to an invalid address
system.switch_cpus.iew.lsq.thread0.invAddrSwpfs            0                       # Number of software prefetches ignored due to an invalid address
system.switch_cpus.iew.lsq.thread0.memOrderViolation            9                       # Number of memory ordering violations
system.switch_cpus.iew.lsq.thread0.rescheduledLoads            0                       # Number of loads that were rescheduled
system.switch_cpus.iew.lsq.thread0.squashedLoads       391205                       # Number of loads squashed
system.switch_cpus.iew.lsq.thread0.squashedStores         7240                       # Number of stores squashed
system.switch_cpus.iew.memOrderViolationEvents            9                       # Number of memory order violations
system.switch_cpus.iew.predictedNotTakenIncorrect        15902                       # Number of branches that were predicted not taken incorrectly
system.switch_cpus.iew.predictedTakenIncorrect        15091                       # Number of branches that were predicted taken incorrectly
system.switch_cpus.iew.wb_consumers          24861591                       # num instructions consuming a value
system.switch_cpus.iew.wb_count              19205229                       # cumulative count of insts written-back
system.switch_cpus.iew.wb_fanout             0.593789                       # average fanout of values written-back
system.switch_cpus.iew.wb_producers          14762542                       # num instructions producing a value
system.switch_cpus.iew.wb_rate               3.431345                       # insts written-back per cycle
system.switch_cpus.iew.wb_sent               19215531                       # cumulative count of insts sent to commit
system.switch_cpus.int_regfile_reads         16502319                       # number of integer regfile reads
system.switch_cpus.int_regfile_writes         8321593                       # number of integer regfile writes
system.switch_cpus.ipc                       1.786672                       # IPC: Instructions Per Cycle
system.switch_cpus.ipc_total                 1.786672                       # IPC: Total IPC of All Threads
system.switch_cpus.iq.FU_type_0::No_OpClass         2015      0.01%      0.01% # Type of FU issued
system.switch_cpus.iq.FU_type_0::IntAlu      10124746     52.56%     52.57% # Type of FU issued
system.switch_cpus.iq.FU_type_0::IntMult            0      0.00%     52.57% # Type of FU issued
system.switch_cpus.iq.FU_type_0::IntDiv             0      0.00%     52.57% # Type of FU issued
system.switch_cpus.iq.FU_type_0::FloatAdd      1018732      5.29%     57.86% # Type of FU issued
system.switch_cpus.iq.FU_type_0::FloatCmp            0      0.00%     57.86% # Type of FU issued
system.switch_cpus.iq.FU_type_0::FloatCvt            0      0.00%     57.86% # Type of FU issued
system.switch_cpus.iq.FU_type_0::FloatMult            0      0.00%     57.86% # Type of FU issued
system.switch_cpus.iq.FU_type_0::FloatMultAcc            0      0.00%     57.86% # Type of FU issued
system.switch_cpus.iq.FU_type_0::FloatDiv            0      0.00%     57.86% # Type of FU issued
system.switch_cpus.iq.FU_type_0::FloatMisc            0      0.00%     57.86% # Type of FU issued
system.switch_cpus.iq.FU_type_0::FloatSqrt            0      0.00%     57.86% # Type of FU issued
system.switch_cpus.iq.FU_type_0::SimdAdd            0      0.00%     57.86% # Type of FU issued
system.switch_cpus.iq.FU_type_0::SimdAddAcc            0      0.00%     57.86% # Type of FU issued
system.switch_cpus.iq.FU_type_0::SimdAlu      1562218      8.11%     65.97% # Type of FU issued
system.switch_cpus.iq.FU_type_0::SimdCmp            0      0.00%     65.97% # Type of FU issued
system.switch_cpus.iq.FU_type_0::SimdCvt            0      0.00%     65.97% # Type of FU issued
system.switch_cpus.iq.FU_type_0::SimdMisc       454824      2.36%     68.33% # Type of FU issued
system.switch_cpus.iq.FU_type_0::SimdMult            0      0.00%     68.33% # Type of FU issued
system.switch_cpus.iq.FU_type_0::SimdMultAcc            0      0.00%     68.33% # Type of FU issued
system.switch_cpus.iq.FU_type_0::SimdShift            0      0.00%     68.33% # Type of FU issued
system.switch_cpus.iq.FU_type_0::SimdShiftAcc            0      0.00%     68.33% # Type of FU issued
system.switch_cpus.iq.FU_type_0::SimdDiv            0      0.00%     68.33% # Type of FU issued
system.switch_cpus.iq.FU_type_0::SimdSqrt            0      0.00%     68.33% # Type of FU issued
system.switch_cpus.iq.FU_type_0::SimdFloatAdd      1459809      7.58%     75.91% # Type of FU issued
system.switch_cpus.iq.FU_type_0::SimdFloatAlu            0      0.00%     75.91% # Type of FU issued
system.switch_cpus.iq.FU_type_0::SimdFloatCmp            0      0.00%     75.91% # Type of FU issued
system.switch_cpus.iq.FU_type_0::SimdFloatCvt       713912      3.71%     79.62% # Type of FU issued
system.switch_cpus.iq.FU_type_0::SimdFloatDiv        56948      0.30%     79.91% # Type of FU issued
system.switch_cpus.iq.FU_type_0::SimdFloatMisc            0      0.00%     79.91% # Type of FU issued
system.switch_cpus.iq.FU_type_0::SimdFloatMult       702653      3.65%     83.56% # Type of FU issued
system.switch_cpus.iq.FU_type_0::SimdFloatMultAcc            0      0.00%     83.56% # Type of FU issued
system.switch_cpus.iq.FU_type_0::SimdFloatSqrt            0      0.00%     83.56% # Type of FU issued
system.switch_cpus.iq.FU_type_0::SimdReduceAdd            0      0.00%     83.56% # Type of FU issued
system.switch_cpus.iq.FU_type_0::SimdReduceAlu            0      0.00%     83.56% # Type of FU issued
system.switch_cpus.iq.FU_type_0::SimdReduceCmp            0      0.00%     83.56% # Type of FU issued
system.switch_cpus.iq.FU_type_0::SimdFloatReduceAdd            0      0.00%     83.56% # Type of FU issued
system.switch_cpus.iq.FU_type_0::SimdFloatReduceCmp            0      0.00%     83.56% # Type of FU issued
system.switch_cpus.iq.FU_type_0::SimdAes            0      0.00%     83.56% # Type of FU issued
system.switch_cpus.iq.FU_type_0::SimdAesMix            0      0.00%     83.56% # Type of FU issued
system.switch_cpus.iq.FU_type_0::SimdSha1Hash            0      0.00%     83.56% # Type of FU issued
system.switch_cpus.iq.FU_type_0::SimdSha1Hash2            0      0.00%     83.56% # Type of FU issued
system.switch_cpus.iq.FU_type_0::SimdSha256Hash            0      0.00%     83.56% # Type of FU issued
system.switch_cpus.iq.FU_type_0::SimdSha256Hash2            0      0.00%     83.56% # Type of FU issued
system.switch_cpus.iq.FU_type_0::SimdShaSigma2            0      0.00%     83.56% # Type of FU issued
system.switch_cpus.iq.FU_type_0::SimdShaSigma3            0      0.00%     83.56% # Type of FU issued
system.switch_cpus.iq.FU_type_0::SimdPredAlu            0      0.00%     83.56% # Type of FU issued
system.switch_cpus.iq.FU_type_0::MemRead       868801      4.51%     88.07% # Type of FU issued
system.switch_cpus.iq.FU_type_0::MemWrite       516267      2.68%     90.75% # Type of FU issued
system.switch_cpus.iq.FU_type_0::FloatMemRead      1607940      8.35%     99.10% # Type of FU issued
system.switch_cpus.iq.FU_type_0::FloatMemWrite       173766      0.90%    100.00% # Type of FU issued
system.switch_cpus.iq.FU_type_0::IprAccess            0      0.00%    100.00% # Type of FU issued
system.switch_cpus.iq.FU_type_0::InstPrefetch            0      0.00%    100.00% # Type of FU issued
system.switch_cpus.iq.FU_type_0::total       19262631                       # Type of FU issued
system.switch_cpus.iq.fp_alu_accesses         9746660                       # Number of floating point alu accesses
system.switch_cpus.iq.fp_inst_queue_reads     19490900                       # Number of floating instruction queue reads
system.switch_cpus.iq.fp_inst_queue_wakeup_accesses      9702641                       # Number of floating instruction queue wakeup accesses
system.switch_cpus.iq.fp_inst_queue_writes     12800843                       # Number of floating instruction queue writes
system.switch_cpus.iq.fu_busy_cnt                3846                       # FU busy when requested
system.switch_cpus.iq.fu_busy_rate           0.000200                       # FU busy rate (busy events/executed inst)
system.switch_cpus.iq.fu_full::No_OpClass            0      0.00%      0.00% # attempts to use FU when none available
system.switch_cpus.iq.fu_full::IntAlu            1172     30.47%     30.47% # attempts to use FU when none available
system.switch_cpus.iq.fu_full::IntMult              0      0.00%     30.47% # attempts to use FU when none available
system.switch_cpus.iq.fu_full::IntDiv               0      0.00%     30.47% # attempts to use FU when none available
system.switch_cpus.iq.fu_full::FloatAdd             0      0.00%     30.47% # attempts to use FU when none available
system.switch_cpus.iq.fu_full::FloatCmp             0      0.00%     30.47% # attempts to use FU when none available
system.switch_cpus.iq.fu_full::FloatCvt             0      0.00%     30.47% # attempts to use FU when none available
system.switch_cpus.iq.fu_full::FloatMult            0      0.00%     30.47% # attempts to use FU when none available
system.switch_cpus.iq.fu_full::FloatMultAcc            0      0.00%     30.47% # attempts to use FU when none available
system.switch_cpus.iq.fu_full::FloatDiv             0      0.00%     30.47% # attempts to use FU when none available
system.switch_cpus.iq.fu_full::FloatMisc            0      0.00%     30.47% # attempts to use FU when none available
system.switch_cpus.iq.fu_full::FloatSqrt            0      0.00%     30.47% # attempts to use FU when none available
system.switch_cpus.iq.fu_full::SimdAdd              0      0.00%     30.47% # attempts to use FU when none available
system.switch_cpus.iq.fu_full::SimdAddAcc            0      0.00%     30.47% # attempts to use FU when none available
system.switch_cpus.iq.fu_full::SimdAlu            969     25.20%     55.67% # attempts to use FU when none available
system.switch_cpus.iq.fu_full::SimdCmp              0      0.00%     55.67% # attempts to use FU when none available
system.switch_cpus.iq.fu_full::SimdCvt              0      0.00%     55.67% # attempts to use FU when none available
system.switch_cpus.iq.fu_full::SimdMisc          1450     37.70%     93.37% # attempts to use FU when none available
system.switch_cpus.iq.fu_full::SimdMult             0      0.00%     93.37% # attempts to use FU when none available
system.switch_cpus.iq.fu_full::SimdMultAcc            0      0.00%     93.37% # attempts to use FU when none available
system.switch_cpus.iq.fu_full::SimdShift            0      0.00%     93.37% # attempts to use FU when none available
system.switch_cpus.iq.fu_full::SimdShiftAcc            0      0.00%     93.37% # attempts to use FU when none available
system.switch_cpus.iq.fu_full::SimdDiv              0      0.00%     93.37% # attempts to use FU when none available
system.switch_cpus.iq.fu_full::SimdSqrt             0      0.00%     93.37% # attempts to use FU when none available
system.switch_cpus.iq.fu_full::SimdFloatAdd           19      0.49%     93.86% # attempts to use FU when none available
system.switch_cpus.iq.fu_full::SimdFloatAlu            0      0.00%     93.86% # attempts to use FU when none available
system.switch_cpus.iq.fu_full::SimdFloatCmp            0      0.00%     93.86% # attempts to use FU when none available
system.switch_cpus.iq.fu_full::SimdFloatCvt            0      0.00%     93.86% # attempts to use FU when none available
system.switch_cpus.iq.fu_full::SimdFloatDiv            0      0.00%     93.86% # attempts to use FU when none available
system.switch_cpus.iq.fu_full::SimdFloatMisc            0      0.00%     93.86% # attempts to use FU when none available
system.switch_cpus.iq.fu_full::SimdFloatMult          235      6.11%     99.97% # attempts to use FU when none available
system.switch_cpus.iq.fu_full::SimdFloatMultAcc            0      0.00%     99.97% # attempts to use FU when none available
system.switch_cpus.iq.fu_full::SimdFloatSqrt            0      0.00%     99.97% # attempts to use FU when none available
system.switch_cpus.iq.fu_full::SimdReduceAdd            0      0.00%     99.97% # attempts to use FU when none available
system.switch_cpus.iq.fu_full::SimdReduceAlu            0      0.00%     99.97% # attempts to use FU when none available
system.switch_cpus.iq.fu_full::SimdReduceCmp            0      0.00%     99.97% # attempts to use FU when none available
system.switch_cpus.iq.fu_full::SimdFloatReduceAdd            0      0.00%     99.97% # attempts to use FU when none available
system.switch_cpus.iq.fu_full::SimdFloatReduceCmp            0      0.00%     99.97% # attempts to use FU when none available
system.switch_cpus.iq.fu_full::SimdAes              0      0.00%     99.97% # attempts to use FU when none available
system.switch_cpus.iq.fu_full::SimdAesMix            0      0.00%     99.97% # attempts to use FU when none available
system.switch_cpus.iq.fu_full::SimdSha1Hash            0      0.00%     99.97% # attempts to use FU when none available
system.switch_cpus.iq.fu_full::SimdSha1Hash2            0      0.00%     99.97% # attempts to use FU when none available
system.switch_cpus.iq.fu_full::SimdSha256Hash            0      0.00%     99.97% # attempts to use FU when none available
system.switch_cpus.iq.fu_full::SimdSha256Hash2            0      0.00%     99.97% # attempts to use FU when none available
system.switch_cpus.iq.fu_full::SimdShaSigma2            0      0.00%     99.97% # attempts to use FU when none available
system.switch_cpus.iq.fu_full::SimdShaSigma3            0      0.00%     99.97% # attempts to use FU when none available
system.switch_cpus.iq.fu_full::SimdPredAlu            0      0.00%     99.97% # attempts to use FU when none available
system.switch_cpus.iq.fu_full::MemRead              0      0.00%     99.97% # attempts to use FU when none available
system.switch_cpus.iq.fu_full::MemWrite             0      0.00%     99.97% # attempts to use FU when none available
system.switch_cpus.iq.fu_full::FloatMemRead            1      0.03%    100.00% # attempts to use FU when none available
system.switch_cpus.iq.fu_full::FloatMemWrite            0      0.00%    100.00% # attempts to use FU when none available
system.switch_cpus.iq.fu_full::IprAccess            0      0.00%    100.00% # attempts to use FU when none available
system.switch_cpus.iq.fu_full::InstPrefetch            0      0.00%    100.00% # attempts to use FU when none available
system.switch_cpus.iq.int_alu_accesses        9517802                       # Number of integer alu accesses
system.switch_cpus.iq.int_inst_queue_reads     24631775                       # Number of integer instruction queue reads
system.switch_cpus.iq.int_inst_queue_wakeup_accesses      9502588                       # Number of integer instruction queue wakeup accesses
system.switch_cpus.iq.int_inst_queue_writes     10915921                       # Number of integer instruction queue writes
system.switch_cpus.iq.iqInstsAdded           20755869                       # Number of instructions added to the IQ (excludes non-spec)
system.switch_cpus.iq.iqInstsIssued          19262631                       # Number of instructions issued
system.switch_cpus.iq.iqSquashedInstsExamined      2960886                       # Number of squashed instructions iterated over during squash; mainly for profiling
system.switch_cpus.iq.iqSquashedInstsIssued          531                       # Number of squashed instructions issued
system.switch_cpus.iq.iqSquashedOperandsExamined      3964963                       # Number of squashed operands that are examined and possibly removed from graph
system.switch_cpus.iq.issued_per_cycle::samples      5593040                       # Number of insts issued each cycle
system.switch_cpus.iq.issued_per_cycle::mean     3.444036                       # Number of insts issued each cycle
system.switch_cpus.iq.issued_per_cycle::stdev     2.541131                       # Number of insts issued each cycle
system.switch_cpus.iq.issued_per_cycle::underflows            0      0.00%      0.00% # Number of insts issued each cycle
system.switch_cpus.iq.issued_per_cycle::0      1191241     21.30%     21.30% # Number of insts issued each cycle
system.switch_cpus.iq.issued_per_cycle::1       338937      6.06%     27.36% # Number of insts issued each cycle
system.switch_cpus.iq.issued_per_cycle::2       579584     10.36%     37.72% # Number of insts issued each cycle
system.switch_cpus.iq.issued_per_cycle::3       686700     12.28%     50.00% # Number of insts issued each cycle
system.switch_cpus.iq.issued_per_cycle::4       763496     13.65%     63.65% # Number of insts issued each cycle
system.switch_cpus.iq.issued_per_cycle::5       736095     13.16%     76.81% # Number of insts issued each cycle
system.switch_cpus.iq.issued_per_cycle::6       541635      9.68%     86.49% # Number of insts issued each cycle
system.switch_cpus.iq.issued_per_cycle::7       322659      5.77%     92.26% # Number of insts issued each cycle
system.switch_cpus.iq.issued_per_cycle::8       432693      7.74%    100.00% # Number of insts issued each cycle
system.switch_cpus.iq.issued_per_cycle::overflows            0      0.00%    100.00% # Number of insts issued each cycle
system.switch_cpus.iq.issued_per_cycle::min_value            0                       # Number of insts issued each cycle
system.switch_cpus.iq.issued_per_cycle::max_value            8                       # Number of insts issued each cycle
system.switch_cpus.iq.issued_per_cycle::total      5593040                       # Number of insts issued each cycle
system.switch_cpus.iq.rate                   3.441600                       # Inst issue rate
system.switch_cpus.iq.vec_alu_accesses              0                       # Number of vector alu accesses
system.switch_cpus.iq.vec_inst_queue_reads            0                       # Number of vector instruction queue reads
system.switch_cpus.iq.vec_inst_queue_wakeup_accesses            0                       # Number of vector instruction queue wakeup accesses
system.switch_cpus.iq.vec_inst_queue_writes            0                       # Number of vector instruction queue writes
system.switch_cpus.itb.rdAccesses                   0                       # TLB accesses on read requests
system.switch_cpus.itb.rdMisses                     0                       # TLB misses on read requests
system.switch_cpus.itb.wrAccesses             1391924                       # TLB accesses on write requests
system.switch_cpus.itb.wrMisses                     8                       # TLB misses on write requests
system.switch_cpus.memDep0.conflictingLoads       114117                       # Number of conflicting loads.
system.switch_cpus.memDep0.conflictingStores            0                       # Number of conflicting stores.
system.switch_cpus.memDep0.insertedLoads      2650149                       # Number of loads inserted to the mem dependence unit.
system.switch_cpus.memDep0.insertedStores       692182                       # Number of stores inserted to the mem dependence unit.
system.switch_cpus.misc_regfile_reads         6334278                       # number of misc regfile reads
system.switch_cpus.misc_regfile_writes              1                       # number of misc regfile writes
system.switch_cpus.numCycles                  5596998                       # number of cpu cycles simulated
system.switch_cpus.numWorkItemsCompleted            0                       # number of work items this cpu completed
system.switch_cpus.numWorkItemsStarted              0                       # number of work items this cpu started
system.switch_cpus.rename.BlockCycles          934753                       # Number of cycles rename is blocking
system.switch_cpus.rename.CommittedMaps      19223235                       # Number of HB maps that are committed
system.switch_cpus.rename.IQFullEvents         339461                       # Number of times rename has blocked due to IQ full
system.switch_cpus.rename.IdleCycles          1250532                       # Number of cycles rename is idle
system.switch_cpus.rename.ROBFullEvents           902                       # Number of times rename has blocked due to ROB full
system.switch_cpus.rename.RenameLookups      47601010                       # Number of register rename lookups that rename has made
system.switch_cpus.rename.RenamedInsts       20903912                       # Number of instructions processed by rename
system.switch_cpus.rename.RenamedOperands     22737240                       # Number of destination operands rename has renamed
system.switch_cpus.rename.RunCycles           2964852                       # Number of cycles rename is running
system.switch_cpus.rename.SQFullEvents           3512                       # Number of times rename has blocked due to SQ full
system.switch_cpus.rename.SquashCycles          30881                       # Number of cycles rename is squashing
system.switch_cpus.rename.UnblockCycles        412011                       # Number of cycles rename is unblocking
system.switch_cpus.rename.UndoneMaps          3513888                       # Number of HB maps that are undone due to squashing
system.switch_cpus.rename.fp_rename_lookups     18093975                       # Number of floating rename lookups
system.switch_cpus.rename.int_rename_lookups     17965880                       # Number of integer rename lookups
system.switch_cpus.rename.serializeStallCycles            0                       # count of cycles rename stalled for serializing inst
system.switch_cpus.rename.serializingInsts            0                       # count of serializing insts renamed
system.switch_cpus.rename.skidInsts           1192688                       # count of insts added to the skid buffer
system.switch_cpus.rename.tempSerializingInsts            0                       # count of temporary serializing insts renamed
system.switch_cpus.rob.rob_reads             24462766                       # The number of ROB reads
system.switch_cpus.rob.rob_writes            41893215                       # The number of ROB writes
system.switch_cpus.timesIdled                      37                       # Number of times that the entire CPU went into an idle state and unscheduled itself
system.tol2bus.snoop_filter.hit_multi_requests            0                       # Number of requests hitting in the snoop filter with multiple (>1) holders of the requested data.
system.tol2bus.snoop_filter.hit_multi_snoops            0                       # Number of snoops hitting in the snoop filter with multiple (>1) holders of the requested data.
system.tol2bus.snoop_filter.hit_single_requests         3616                       # Number of requests hitting in the snoop filter with a single holder of the requested data.
system.tol2bus.snoop_filter.hit_single_snoops         2468                       # Number of snoops hitting in the snoop filter with a single holder of the requested data.
system.tol2bus.snoop_filter.tot_requests         8315                       # Total number of requests made to the snoop filter.
system.tol2bus.snoop_filter.tot_snoops           2468                       # Total number of snoops made to the snoop filter.
system.membus.pwrStateResidencyTicks::UNDEFINED 133782805982000                       # Cumulative time (in ticks) in various power states
system.membus.trans_dist::ReadResp               4210                       # Transaction distribution
system.membus.trans_dist::WritebackDirty         1063                       # Transaction distribution
system.membus.trans_dist::CleanEvict              198                       # Transaction distribution
system.membus.trans_dist::ReadExReq                96                       # Transaction distribution
system.membus.trans_dist::ReadExResp               96                       # Transaction distribution
system.membus.trans_dist::ReadSharedReq          4210                       # Transaction distribution
system.membus.pkt_count_system.l2.mem_side::system.mem_ctrls.port         9873                       # Packet count per connected master and slave (bytes)
system.membus.pkt_count_system.l2.mem_side::total         9873                       # Packet count per connected master and slave (bytes)
system.membus.pkt_count::total                   9873                       # Packet count per connected master and slave (bytes)
system.membus.pkt_size_system.l2.mem_side::system.mem_ctrls.port       343616                       # Cumulative packet size per connected master and slave (bytes)
system.membus.pkt_size_system.l2.mem_side::total       343616                       # Cumulative packet size per connected master and slave (bytes)
system.membus.pkt_size::total                  343616                       # Cumulative packet size per connected master and slave (bytes)
system.membus.snoops                                0                       # Total snoops (count)
system.membus.snoopTraffic                          0                       # Total snoop traffic (bytes)
system.membus.snoop_fanout::samples              4306                       # Request fanout histogram
system.membus.snoop_fanout::mean                    0                       # Request fanout histogram
system.membus.snoop_fanout::stdev                   0                       # Request fanout histogram
system.membus.snoop_fanout::underflows              0      0.00%      0.00% # Request fanout histogram
system.membus.snoop_fanout::0                    4306    100.00%    100.00% # Request fanout histogram
system.membus.snoop_fanout::1                       0      0.00%    100.00% # Request fanout histogram
system.membus.snoop_fanout::overflows               0      0.00%    100.00% # Request fanout histogram
system.membus.snoop_fanout::min_value               0                       # Request fanout histogram
system.membus.snoop_fanout::max_value               0                       # Request fanout histogram
system.membus.snoop_fanout::total                4306                       # Request fanout histogram
system.membus.reqLayer2.occupancy            10876500                       # Layer occupancy (ticks)
system.membus.reqLayer2.utilization               0.4                       # Layer utilization (%)
system.membus.respLayer1.occupancy           22801750                       # Layer occupancy (ticks)
system.membus.respLayer1.utilization              0.8                       # Layer utilization (%)
system.switch_cpus.pwrStateResidencyTicks::OFF   2798509500                       # Cumulative time (in ticks) in various power states
system.switch_cpus.dtb.walker.pwrStateResidencyTicks::UNDEFINED 133782805982000                       # Cumulative time (in ticks) in various power states
system.switch_cpus.itb.walker.pwrStateResidencyTicks::UNDEFINED 133782805982000                       # Cumulative time (in ticks) in various power states
system.tol2bus.pwrStateResidencyTicks::UNDEFINED 133782805982000                       # Cumulative time (in ticks) in various power states
system.tol2bus.trans_dist::ReadResp              4576                       # Transaction distribution
system.tol2bus.trans_dist::WritebackDirty         4002                       # Transaction distribution
system.tol2bus.trans_dist::CleanEvict            3149                       # Transaction distribution
system.tol2bus.trans_dist::ReadExReq              123                       # Transaction distribution
system.tol2bus.trans_dist::ReadExResp             123                       # Transaction distribution
system.tol2bus.trans_dist::ReadCleanReq            59                       # Transaction distribution
system.tol2bus.trans_dist::ReadSharedReq         4517                       # Transaction distribution
system.tol2bus.pkt_count_system.cpu.icache.mem_side::system.l2.cpu_side          118                       # Packet count per connected master and slave (bytes)
system.tol2bus.pkt_count_system.cpu.dcache.mem_side::system.l2.cpu_side        12896                       # Packet count per connected master and slave (bytes)
system.tol2bus.pkt_count::total                 13014                       # Packet count per connected master and slave (bytes)
system.tol2bus.pkt_size_system.cpu.icache.mem_side::system.l2.cpu_side         3776                       # Cumulative packet size per connected master and slave (bytes)
system.tol2bus.pkt_size_system.cpu.dcache.mem_side::system.l2.cpu_side       485056                       # Cumulative packet size per connected master and slave (bytes)
system.tol2bus.pkt_size::total                 488832                       # Cumulative packet size per connected master and slave (bytes)
system.tol2bus.snoops                            3535                       # Total snoops (count)
system.tol2bus.snoopTraffic                     68032                       # Total snoop traffic (bytes)
system.tol2bus.snoop_fanout::samples             8234                       # Request fanout histogram
system.tol2bus.snoop_fanout::mean            0.299733                       # Request fanout histogram
system.tol2bus.snoop_fanout::stdev           0.458169                       # Request fanout histogram
system.tol2bus.snoop_fanout::underflows             0      0.00%      0.00% # Request fanout histogram
system.tol2bus.snoop_fanout::0                   5766     70.03%     70.03% # Request fanout histogram
system.tol2bus.snoop_fanout::1                   2468     29.97%    100.00% # Request fanout histogram
system.tol2bus.snoop_fanout::2                      0      0.00%    100.00% # Request fanout histogram
system.tol2bus.snoop_fanout::3                      0      0.00%    100.00% # Request fanout histogram
system.tol2bus.snoop_fanout::4                      0      0.00%    100.00% # Request fanout histogram
system.tol2bus.snoop_fanout::overflows              0      0.00%    100.00% # Request fanout histogram
system.tol2bus.snoop_fanout::min_value              0                       # Request fanout histogram
system.tol2bus.snoop_fanout::max_value              1                       # Request fanout histogram
system.tol2bus.snoop_fanout::total               8234                       # Request fanout histogram
system.tol2bus.reqLayer0.occupancy            7094000                       # Layer occupancy (ticks)
system.tol2bus.reqLayer0.utilization              0.3                       # Layer utilization (%)
system.tol2bus.respLayer1.occupancy           6957000                       # Layer occupancy (ticks)
system.tol2bus.respLayer1.utilization             0.2                       # Layer utilization (%)
system.tol2bus.respLayer0.occupancy             84000                       # Layer occupancy (ticks)
system.tol2bus.respLayer0.utilization             0.0                       # Layer utilization (%)
system.voltage_domain.voltage                       1                       # Voltage in Volts
system.clk_domain.clock                          1000                       # Clock period in ticks
system.l2.pwrStateResidencyTicks::UNDEFINED 133782805982000                       # Cumulative time (in ticks) in various power states
system.l2.demand_hits::.switch_cpus.data          393                       # number of demand (read+write) hits
system.l2.demand_hits::total                      393                       # number of demand (read+write) hits
system.l2.overall_hits::.switch_cpus.data          393                       # number of overall hits
system.l2.overall_hits::total                     393                       # number of overall hits
system.l2.demand_misses::.cpu.inst                  3                       # number of demand (read+write) misses
system.l2.demand_misses::.cpu.data                  2                       # number of demand (read+write) misses
system.l2.demand_misses::.switch_cpus.inst           56                       # number of demand (read+write) misses
system.l2.demand_misses::.switch_cpus.data         4245                       # number of demand (read+write) misses
system.l2.demand_misses::total                   4306                       # number of demand (read+write) misses
system.l2.overall_misses::.cpu.inst                 3                       # number of overall misses
system.l2.overall_misses::.cpu.data                 2                       # number of overall misses
system.l2.overall_misses::.switch_cpus.inst           56                       # number of overall misses
system.l2.overall_misses::.switch_cpus.data         4245                       # number of overall misses
system.l2.overall_misses::total                  4306                       # number of overall misses
system.l2.demand_miss_latency::.switch_cpus.inst      4838500                       # number of demand (read+write) miss cycles
system.l2.demand_miss_latency::.switch_cpus.data    323770000                       # number of demand (read+write) miss cycles
system.l2.demand_miss_latency::total        328608500                       # number of demand (read+write) miss cycles
system.l2.overall_miss_latency::.switch_cpus.inst      4838500                       # number of overall miss cycles
system.l2.overall_miss_latency::.switch_cpus.data    323770000                       # number of overall miss cycles
system.l2.overall_miss_latency::total       328608500                       # number of overall miss cycles
system.l2.demand_accesses::.cpu.inst                3                       # number of demand (read+write) accesses
system.l2.demand_accesses::.cpu.data                2                       # number of demand (read+write) accesses
system.l2.demand_accesses::.switch_cpus.inst           56                       # number of demand (read+write) accesses
system.l2.demand_accesses::.switch_cpus.data         4638                       # number of demand (read+write) accesses
system.l2.demand_accesses::total                 4699                       # number of demand (read+write) accesses
system.l2.overall_accesses::.cpu.inst               3                       # number of overall (read+write) accesses
system.l2.overall_accesses::.cpu.data               2                       # number of overall (read+write) accesses
system.l2.overall_accesses::.switch_cpus.inst           56                       # number of overall (read+write) accesses
system.l2.overall_accesses::.switch_cpus.data         4638                       # number of overall (read+write) accesses
system.l2.overall_accesses::total                4699                       # number of overall (read+write) accesses
system.l2.demand_miss_rate::.cpu.inst               1                       # miss rate for demand accesses
system.l2.demand_miss_rate::.cpu.data               1                       # miss rate for demand accesses
system.l2.demand_miss_rate::.switch_cpus.inst            1                       # miss rate for demand accesses
system.l2.demand_miss_rate::.switch_cpus.data     0.915265                       # miss rate for demand accesses
system.l2.demand_miss_rate::total            0.916365                       # miss rate for demand accesses
system.l2.overall_miss_rate::.cpu.inst              1                       # miss rate for overall accesses
system.l2.overall_miss_rate::.cpu.data              1                       # miss rate for overall accesses
system.l2.overall_miss_rate::.switch_cpus.inst            1                       # miss rate for overall accesses
system.l2.overall_miss_rate::.switch_cpus.data     0.915265                       # miss rate for overall accesses
system.l2.overall_miss_rate::total           0.916365                       # miss rate for overall accesses
system.l2.demand_avg_miss_latency::.switch_cpus.inst 86401.785714                       # average overall miss latency
system.l2.demand_avg_miss_latency::.switch_cpus.data 76270.906949                       # average overall miss latency
system.l2.demand_avg_miss_latency::total 76314.096609                       # average overall miss latency
system.l2.overall_avg_miss_latency::.switch_cpus.inst 86401.785714                       # average overall miss latency
system.l2.overall_avg_miss_latency::.switch_cpus.data 76270.906949                       # average overall miss latency
system.l2.overall_avg_miss_latency::total 76314.096609                       # average overall miss latency
system.l2.blocked_cycles::no_mshrs                  0                       # number of cycles access was blocked
system.l2.blocked_cycles::no_targets                0                       # number of cycles access was blocked
system.l2.blocked::no_mshrs                         0                       # number of cycles access was blocked
system.l2.blocked::no_targets                       0                       # number of cycles access was blocked
system.l2.avg_blocked_cycles::no_mshrs            nan                       # average number of cycles each access was blocked
system.l2.avg_blocked_cycles::no_targets          nan                       # average number of cycles each access was blocked
system.l2.writebacks::.writebacks                1063                       # number of writebacks
system.l2.writebacks::total                      1063                       # number of writebacks
system.l2.demand_mshr_misses::.switch_cpus.inst           56                       # number of demand (read+write) MSHR misses
system.l2.demand_mshr_misses::.switch_cpus.data         4245                       # number of demand (read+write) MSHR misses
system.l2.demand_mshr_misses::total              4301                       # number of demand (read+write) MSHR misses
system.l2.overall_mshr_misses::.switch_cpus.inst           56                       # number of overall MSHR misses
system.l2.overall_mshr_misses::.switch_cpus.data         4245                       # number of overall MSHR misses
system.l2.overall_mshr_misses::total             4301                       # number of overall MSHR misses
system.l2.demand_mshr_miss_latency::.switch_cpus.inst      4278500                       # number of demand (read+write) MSHR miss cycles
system.l2.demand_mshr_miss_latency::.switch_cpus.data    281320000                       # number of demand (read+write) MSHR miss cycles
system.l2.demand_mshr_miss_latency::total    285598500                       # number of demand (read+write) MSHR miss cycles
system.l2.overall_mshr_miss_latency::.switch_cpus.inst      4278500                       # number of overall MSHR miss cycles
system.l2.overall_mshr_miss_latency::.switch_cpus.data    281320000                       # number of overall MSHR miss cycles
system.l2.overall_mshr_miss_latency::total    285598500                       # number of overall MSHR miss cycles
system.l2.demand_mshr_miss_rate::.switch_cpus.inst            1                       # mshr miss rate for demand accesses
system.l2.demand_mshr_miss_rate::.switch_cpus.data     0.915265                       # mshr miss rate for demand accesses
system.l2.demand_mshr_miss_rate::total       0.915301                       # mshr miss rate for demand accesses
system.l2.overall_mshr_miss_rate::.switch_cpus.inst            1                       # mshr miss rate for overall accesses
system.l2.overall_mshr_miss_rate::.switch_cpus.data     0.915265                       # mshr miss rate for overall accesses
system.l2.overall_mshr_miss_rate::total      0.915301                       # mshr miss rate for overall accesses
system.l2.demand_avg_mshr_miss_latency::.switch_cpus.inst 76401.785714                       # average overall mshr miss latency
system.l2.demand_avg_mshr_miss_latency::.switch_cpus.data 66270.906949                       # average overall mshr miss latency
system.l2.demand_avg_mshr_miss_latency::total 66402.813299                       # average overall mshr miss latency
system.l2.overall_avg_mshr_miss_latency::.switch_cpus.inst 76401.785714                       # average overall mshr miss latency
system.l2.overall_avg_mshr_miss_latency::.switch_cpus.data 66270.906949                       # average overall mshr miss latency
system.l2.overall_avg_mshr_miss_latency::total 66402.813299                       # average overall mshr miss latency
system.l2.replacements                           3535                       # number of replacements
system.l2.WritebackDirty_hits::.writebacks         2939                       # number of WritebackDirty hits
system.l2.WritebackDirty_hits::total             2939                       # number of WritebackDirty hits
system.l2.WritebackDirty_accesses::.writebacks         2939                       # number of WritebackDirty accesses(hits+misses)
system.l2.WritebackDirty_accesses::total         2939                       # number of WritebackDirty accesses(hits+misses)
system.l2.CleanEvict_mshr_misses::.writebacks          194                       # number of CleanEvict MSHR misses
system.l2.CleanEvict_mshr_misses::total           194                       # number of CleanEvict MSHR misses
system.l2.CleanEvict_mshr_miss_rate::.writebacks          inf                       # mshr miss rate for CleanEvict accesses
system.l2.CleanEvict_mshr_miss_rate::total          inf                       # mshr miss rate for CleanEvict accesses
system.l2.ReadExReq_hits::.switch_cpus.data           27                       # number of ReadExReq hits
system.l2.ReadExReq_hits::total                    27                       # number of ReadExReq hits
system.l2.ReadExReq_misses::.cpu.data               1                       # number of ReadExReq misses
system.l2.ReadExReq_misses::.switch_cpus.data           95                       # number of ReadExReq misses
system.l2.ReadExReq_misses::total                  96                       # number of ReadExReq misses
system.l2.ReadExReq_miss_latency::.switch_cpus.data      9337500                       # number of ReadExReq miss cycles
system.l2.ReadExReq_miss_latency::total       9337500                       # number of ReadExReq miss cycles
system.l2.ReadExReq_accesses::.cpu.data             1                       # number of ReadExReq accesses(hits+misses)
system.l2.ReadExReq_accesses::.switch_cpus.data          122                       # number of ReadExReq accesses(hits+misses)
system.l2.ReadExReq_accesses::total               123                       # number of ReadExReq accesses(hits+misses)
system.l2.ReadExReq_miss_rate::.cpu.data            1                       # miss rate for ReadExReq accesses
system.l2.ReadExReq_miss_rate::.switch_cpus.data     0.778689                       # miss rate for ReadExReq accesses
system.l2.ReadExReq_miss_rate::total         0.780488                       # miss rate for ReadExReq accesses
system.l2.ReadExReq_avg_miss_latency::.switch_cpus.data 98289.473684                       # average ReadExReq miss latency
system.l2.ReadExReq_avg_miss_latency::total 97265.625000                       # average ReadExReq miss latency
system.l2.ReadExReq_mshr_misses::.switch_cpus.data           95                       # number of ReadExReq MSHR misses
system.l2.ReadExReq_mshr_misses::total             95                       # number of ReadExReq MSHR misses
system.l2.ReadExReq_mshr_miss_latency::.switch_cpus.data      8387500                       # number of ReadExReq MSHR miss cycles
system.l2.ReadExReq_mshr_miss_latency::total      8387500                       # number of ReadExReq MSHR miss cycles
system.l2.ReadExReq_mshr_miss_rate::.switch_cpus.data     0.778689                       # mshr miss rate for ReadExReq accesses
system.l2.ReadExReq_mshr_miss_rate::total     0.772358                       # mshr miss rate for ReadExReq accesses
system.l2.ReadExReq_avg_mshr_miss_latency::.switch_cpus.data 88289.473684                       # average ReadExReq mshr miss latency
system.l2.ReadExReq_avg_mshr_miss_latency::total 88289.473684                       # average ReadExReq mshr miss latency
system.l2.ReadCleanReq_misses::.cpu.inst            3                       # number of ReadCleanReq misses
system.l2.ReadCleanReq_misses::.switch_cpus.inst           56                       # number of ReadCleanReq misses
system.l2.ReadCleanReq_misses::total               59                       # number of ReadCleanReq misses
system.l2.ReadCleanReq_miss_latency::.switch_cpus.inst      4838500                       # number of ReadCleanReq miss cycles
system.l2.ReadCleanReq_miss_latency::total      4838500                       # number of ReadCleanReq miss cycles
system.l2.ReadCleanReq_accesses::.cpu.inst            3                       # number of ReadCleanReq accesses(hits+misses)
system.l2.ReadCleanReq_accesses::.switch_cpus.inst           56                       # number of ReadCleanReq accesses(hits+misses)
system.l2.ReadCleanReq_accesses::total             59                       # number of ReadCleanReq accesses(hits+misses)
system.l2.ReadCleanReq_miss_rate::.cpu.inst            1                       # miss rate for ReadCleanReq accesses
system.l2.ReadCleanReq_miss_rate::.switch_cpus.inst            1                       # miss rate for ReadCleanReq accesses
system.l2.ReadCleanReq_miss_rate::total             1                       # miss rate for ReadCleanReq accesses
system.l2.ReadCleanReq_avg_miss_latency::.switch_cpus.inst 86401.785714                       # average ReadCleanReq miss latency
system.l2.ReadCleanReq_avg_miss_latency::total 82008.474576                       # average ReadCleanReq miss latency
system.l2.ReadCleanReq_mshr_misses::.switch_cpus.inst           56                       # number of ReadCleanReq MSHR misses
system.l2.ReadCleanReq_mshr_misses::total           56                       # number of ReadCleanReq MSHR misses
system.l2.ReadCleanReq_mshr_miss_latency::.switch_cpus.inst      4278500                       # number of ReadCleanReq MSHR miss cycles
system.l2.ReadCleanReq_mshr_miss_latency::total      4278500                       # number of ReadCleanReq MSHR miss cycles
system.l2.ReadCleanReq_mshr_miss_rate::.switch_cpus.inst            1                       # mshr miss rate for ReadCleanReq accesses
system.l2.ReadCleanReq_mshr_miss_rate::total     0.949153                       # mshr miss rate for ReadCleanReq accesses
system.l2.ReadCleanReq_avg_mshr_miss_latency::.switch_cpus.inst 76401.785714                       # average ReadCleanReq mshr miss latency
system.l2.ReadCleanReq_avg_mshr_miss_latency::total 76401.785714                       # average ReadCleanReq mshr miss latency
[...]
system.cpu.itb_walker_cache.pwrStateResidencyTicks::UNDEFINED 133791173347000                       # Cumulative time (in ticks) in various power states
system.cpu.itb_walker_cache.blocked_cycles::no_mshrs            0                       # number of cycles access was blocked
system.cpu.itb_walker_cache.blocked_cycles::no_targets            0                       # number of cycles access was blocked
system.cpu.itb_walker_cache.blocked::no_mshrs            0                       # number of cycles access was blocked
system.cpu.itb_walker_cache.blocked::no_targets            0                       # number of cycles access was blocked
system.cpu.itb_walker_cache.avg_blocked_cycles::no_mshrs          nan                       # average number of cycles each access was blocked
system.cpu.itb_walker_cache.avg_blocked_cycles::no_targets          nan                       # average number of cycles each access was blocked
system.cpu.itb_walker_cache.replacements            0                       # number of replacements
system.cpu.itb_walker_cache.tags.pwrStateResidencyTicks::UNDEFINED 133791173347000                       # Cumulative time (in ticks) in various power states
system.cpu.itb_walker_cache.tags.tagsinuse            0                       # Cycle average of tags in use
system.cpu.itb_walker_cache.tags.total_refs            0                       # Total number of references to valid blocks.
system.cpu.itb_walker_cache.tags.sampled_refs            0                       # Sample count of references to valid blocks.
system.cpu.itb_walker_cache.tags.avg_refs          nan                       # Average number of references to valid blocks.
system.cpu.itb_walker_cache.tags.warmup_cycle            0                       # Cycle when the warmup percentage was hit.
system.cpu.itb_walker_cache.tags.tag_accesses            0                       # Number of tag accesses
system.cpu.itb_walker_cache.tags.data_accesses            0                       # Number of data accesses
system.cpu.itb.walker.pwrStateResidencyTicks::UNDEFINED 133791173347000                       # Cumulative time (in ticks) in various power states
system.cpu.dtb_walker_cache.pwrStateResidencyTicks::UNDEFINED 133791173347000                       # Cumulative time (in ticks) in various power states
system.cpu.dtb_walker_cache.blocked_cycles::no_mshrs            0                       # number of cycles access was blocked
system.cpu.dtb_walker_cache.blocked_cycles::no_targets            0                       # number of cycles access was blocked
system.cpu.dtb_walker_cache.blocked::no_mshrs            0                       # number of cycles access was blocked
system.cpu.dtb_walker_cache.blocked::no_targets            0                       # number of cycles access was blocked
system.cpu.dtb_walker_cache.avg_blocked_cycles::no_mshrs          nan                       # average number of cycles each access was blocked
system.cpu.dtb_walker_cache.avg_blocked_cycles::no_targets          nan                       # average number of cycles each access was blocked
system.cpu.dtb_walker_cache.replacements            0                       # number of replacements
system.cpu.dtb_walker_cache.tags.pwrStateResidencyTicks::UNDEFINED 133791173347000                       # Cumulative time (in ticks) in various power states
system.cpu.dtb_walker_cache.tags.tagsinuse            0                       # Cycle average of tags in use
system.cpu.dtb_walker_cache.tags.total_refs            0                       # Total number of references to valid blocks.
system.cpu.dtb_walker_cache.tags.sampled_refs            0                       # Sample count of references to valid blocks.
system.cpu.dtb_walker_cache.tags.avg_refs          nan                       # Average number of references to valid blocks.
system.cpu.dtb_walker_cache.tags.warmup_cycle            0                       # Cycle when the warmup percentage was hit.
system.cpu.dtb_walker_cache.tags.tag_accesses            0                       # Number of tag accesses
system.cpu.dtb_walker_cache.tags.data_accesses            0                       # Number of data accesses
system.cpu.dcache.pwrStateResidencyTicks::UNDEFINED 133791173347000                       # Cumulative time (in ticks) in various power states
system.cpu.dcache.demand_hits::.cpu.data            4                       # number of demand (read+write) hits
system.cpu.dcache.demand_hits::.switch_cpus.data     12421758                       # number of demand (read+write) hits
system.cpu.dcache.demand_hits::total         12421762                       # number of demand (read+write) hits
system.cpu.dcache.overall_hits::.cpu.data            4                       # number of overall hits
system.cpu.dcache.overall_hits::.switch_cpus.data     12421758                       # number of overall hits
system.cpu.dcache.overall_hits::total        12421762                       # number of overall hits
system.cpu.dcache.demand_misses::.cpu.data            2                       # number of demand (read+write) misses
system.cpu.dcache.demand_misses::.switch_cpus.data        18085                       # number of demand (read+write) misses
system.cpu.dcache.demand_misses::total          18087                       # number of demand (read+write) misses
system.cpu.dcache.overall_misses::.cpu.data            2                       # number of overall misses
system.cpu.dcache.overall_misses::.switch_cpus.data        18085                       # number of overall misses
system.cpu.dcache.overall_misses::total         18087                       # number of overall misses
system.cpu.dcache.demand_miss_latency::.switch_cpus.data   1329731000                       # number of demand (read+write) miss cycles
system.cpu.dcache.demand_miss_latency::total   1329731000                       # number of demand (read+write) miss cycles
system.cpu.dcache.overall_miss_latency::.switch_cpus.data   1329731000                       # number of overall miss cycles
system.cpu.dcache.overall_miss_latency::total   1329731000                       # number of overall miss cycles
system.cpu.dcache.demand_accesses::.cpu.data            6                       # number of demand (read+write) accesses
system.cpu.dcache.demand_accesses::.switch_cpus.data     12439843                       # number of demand (read+write) accesses
system.cpu.dcache.demand_accesses::total     12439849                       # number of demand (read+write) accesses
system.cpu.dcache.overall_accesses::.cpu.data            6                       # number of overall (read+write) accesses
system.cpu.dcache.overall_accesses::.switch_cpus.data     12439843                       # number of overall (read+write) accesses
system.cpu.dcache.overall_accesses::total     12439849                       # number of overall (read+write) accesses
system.cpu.dcache.demand_miss_rate::.cpu.data     0.333333                       # miss rate for demand accesses
system.cpu.dcache.demand_miss_rate::.switch_cpus.data     0.001454                       # miss rate for demand accesses
system.cpu.dcache.demand_miss_rate::total     0.001454                       # miss rate for demand accesses
system.cpu.dcache.overall_miss_rate::.cpu.data     0.333333                       # miss rate for overall accesses
system.cpu.dcache.overall_miss_rate::.switch_cpus.data     0.001454                       # miss rate for overall accesses
system.cpu.dcache.overall_miss_rate::total     0.001454                       # miss rate for overall accesses
system.cpu.dcache.demand_avg_miss_latency::.switch_cpus.data 73526.734863                       # average overall miss latency
system.cpu.dcache.demand_avg_miss_latency::total 73518.604523                       # average overall miss latency
system.cpu.dcache.overall_avg_miss_latency::.switch_cpus.data 73526.734863                       # average overall miss latency
system.cpu.dcache.overall_avg_miss_latency::total 73518.604523                       # average overall miss latency
system.cpu.dcache.blocked_cycles::no_mshrs          217                       # number of cycles access was blocked
system.cpu.dcache.blocked_cycles::no_targets            0                       # number of cycles access was blocked
system.cpu.dcache.blocked::no_mshrs                 6                       # number of cycles access was blocked
system.cpu.dcache.blocked::no_targets               0                       # number of cycles access was blocked
system.cpu.dcache.avg_blocked_cycles::no_mshrs    36.166667                       # average number of cycles each access was blocked
system.cpu.dcache.avg_blocked_cycles::no_targets          nan                       # average number of cycles each access was blocked
system.cpu.dcache.writebacks::.writebacks        14041                       # number of writebacks
system.cpu.dcache.writebacks::total             14041                       # number of writebacks
system.cpu.dcache.demand_mshr_hits::.switch_cpus.data          943                       # number of demand (read+write) MSHR hits
system.cpu.dcache.demand_mshr_hits::total          943                       # number of demand (read+write) MSHR hits
system.cpu.dcache.overall_mshr_hits::.switch_cpus.data          943                       # number of overall MSHR hits
system.cpu.dcache.overall_mshr_hits::total          943                       # number of overall MSHR hits
system.cpu.dcache.demand_mshr_misses::.switch_cpus.data        17142                       # number of demand (read+write) MSHR misses
system.cpu.dcache.demand_mshr_misses::total        17142                       # number of demand (read+write) MSHR misses
system.cpu.dcache.overall_mshr_misses::.switch_cpus.data        17142                       # number of overall MSHR misses
system.cpu.dcache.overall_mshr_misses::total        17142                       # number of overall MSHR misses
system.cpu.dcache.demand_mshr_miss_latency::.switch_cpus.data   1268538500                       # number of demand (read+write) MSHR miss cycles
system.cpu.dcache.demand_mshr_miss_latency::total   1268538500                       # number of demand (read+write) MSHR miss cycles
system.cpu.dcache.overall_mshr_miss_latency::.switch_cpus.data   1268538500                       # number of overall MSHR miss cycles
system.cpu.dcache.overall_mshr_miss_latency::total   1268538500                       # number of overall MSHR miss cycles
system.cpu.dcache.demand_mshr_miss_rate::.switch_cpus.data     0.001378                       # mshr miss rate for demand accesses
system.cpu.dcache.demand_mshr_miss_rate::total     0.001378                       # mshr miss rate for demand accesses
system.cpu.dcache.overall_mshr_miss_rate::.switch_cpus.data     0.001378                       # mshr miss rate for overall accesses
system.cpu.dcache.overall_mshr_miss_rate::total     0.001378                       # mshr miss rate for overall accesses
system.cpu.dcache.demand_avg_mshr_miss_latency::.switch_cpus.data 74001.779256                       # average overall mshr miss latency
system.cpu.dcache.demand_avg_mshr_miss_latency::total 74001.779256                       # average overall mshr miss latency
system.cpu.dcache.overall_avg_mshr_miss_latency::.switch_cpus.data 74001.779256                       # average overall mshr miss latency
system.cpu.dcache.overall_avg_mshr_miss_latency::total 74001.779256                       # average overall mshr miss latency
system.cpu.dcache.replacements                  16120                       # number of replacements
system.cpu.dcache.ReadReq_hits::.switch_cpus.data      9682257                       # number of ReadReq hits
system.cpu.dcache.ReadReq_hits::total         9682257                       # number of ReadReq hits
system.cpu.dcache.ReadReq_misses::.cpu.data            1                       # number of ReadReq misses
system.cpu.dcache.ReadReq_misses::.switch_cpus.data        17594                       # number of ReadReq misses
system.cpu.dcache.ReadReq_misses::total         17595                       # number of ReadReq misses
system.cpu.dcache.ReadReq_miss_latency::.switch_cpus.data   1292080000                       # number of ReadReq miss cycles
system.cpu.dcache.ReadReq_miss_latency::total   1292080000                       # number of ReadReq miss cycles
system.cpu.dcache.ReadReq_accesses::.cpu.data            1                       # number of ReadReq accesses(hits+misses)
system.cpu.dcache.ReadReq_accesses::.switch_cpus.data      9699851                       # number of ReadReq accesses(hits+misses)
system.cpu.dcache.ReadReq_accesses::total      9699852                       # number of ReadReq accesses(hits+misses)
system.cpu.dcache.ReadReq_miss_rate::.cpu.data            1                       # miss rate for ReadReq accesses
system.cpu.dcache.ReadReq_miss_rate::.switch_cpus.data     0.001814                       # miss rate for ReadReq accesses
system.cpu.dcache.ReadReq_miss_rate::total     0.001814                       # miss rate for ReadReq accesses
system.cpu.dcache.ReadReq_avg_miss_latency::.switch_cpus.data 73438.672275                       # average ReadReq miss latency
system.cpu.dcache.ReadReq_avg_miss_latency::total 73434.498437                       # average ReadReq miss latency
system.cpu.dcache.ReadReq_mshr_hits::.switch_cpus.data          943                       # number of ReadReq MSHR hits
system.cpu.dcache.ReadReq_mshr_hits::total          943                       # number of ReadReq MSHR hits
system.cpu.dcache.ReadReq_mshr_misses::.switch_cpus.data        16651                       # number of ReadReq MSHR misses
system.cpu.dcache.ReadReq_mshr_misses::total        16651                       # number of ReadReq MSHR misses
system.cpu.dcache.ReadReq_mshr_miss_latency::.switch_cpus.data   1231378500                       # number of ReadReq MSHR miss cycles
system.cpu.dcache.ReadReq_mshr_miss_latency::total   1231378500                       # number of ReadReq MSHR miss cycles
system.cpu.dcache.ReadReq_mshr_miss_rate::.switch_cpus.data     0.001717                       # mshr miss rate for ReadReq accesses
system.cpu.dcache.ReadReq_mshr_miss_rate::total     0.001717                       # mshr miss rate for ReadReq accesses
system.cpu.dcache.ReadReq_avg_mshr_miss_latency::.switch_cpus.data 73952.225092                       # average ReadReq mshr miss latency
system.cpu.dcache.ReadReq_avg_mshr_miss_latency::total 73952.225092                       # average ReadReq mshr miss latency
system.cpu.dcache.WriteReq_hits::.cpu.data            4                       # number of WriteReq hits
system.cpu.dcache.WriteReq_hits::.switch_cpus.data      2739501                       # number of WriteReq hits
system.cpu.dcache.WriteReq_hits::total        2739505                       # number of WriteReq hits
system.cpu.dcache.WriteReq_misses::.cpu.data            1                       # number of WriteReq misses
system.cpu.dcache.WriteReq_misses::.switch_cpus.data          491                       # number of WriteReq misses
system.cpu.dcache.WriteReq_misses::total          492                       # number of WriteReq misses
system.cpu.dcache.WriteReq_miss_latency::.switch_cpus.data     37651000                       # number of WriteReq miss cycles
system.cpu.dcache.WriteReq_miss_latency::total     37651000                       # number of WriteReq miss cycles
system.cpu.dcache.WriteReq_accesses::.cpu.data            5                       # number of WriteReq accesses(hits+misses)
system.cpu.dcache.WriteReq_accesses::.switch_cpus.data      2739992                       # number of WriteReq accesses(hits+misses)
system.cpu.dcache.WriteReq_accesses::total      2739997                       # number of WriteReq accesses(hits+misses)
system.cpu.dcache.WriteReq_miss_rate::.cpu.data     0.200000                       # miss rate for WriteReq accesses
system.cpu.dcache.WriteReq_miss_rate::.switch_cpus.data     0.000179                       # miss rate for WriteReq accesses
system.cpu.dcache.WriteReq_miss_rate::total     0.000180                       # miss rate for WriteReq accesses
system.cpu.dcache.WriteReq_avg_miss_latency::.switch_cpus.data 76682.281059                       # average WriteReq miss latency
system.cpu.dcache.WriteReq_avg_miss_latency::total 76526.422764                       # average WriteReq miss latency
system.cpu.dcache.WriteReq_mshr_misses::.switch_cpus.data          491                       # number of WriteReq MSHR misses
system.cpu.dcache.WriteReq_mshr_misses::total          491                       # number of WriteReq MSHR misses
system.cpu.dcache.WriteReq_mshr_miss_latency::.switch_cpus.data     37160000                       # number of WriteReq MSHR miss cycles
system.cpu.dcache.WriteReq_mshr_miss_latency::total     37160000                       # number of WriteReq MSHR miss cycles
system.cpu.dcache.WriteReq_mshr_miss_rate::.switch_cpus.data     0.000179                       # mshr miss rate for WriteReq accesses
system.cpu.dcache.WriteReq_mshr_miss_rate::total     0.000179                       # mshr miss rate for WriteReq accesses
system.cpu.dcache.WriteReq_avg_mshr_miss_latency::.switch_cpus.data 75682.281059                       # average WriteReq mshr miss latency
system.cpu.dcache.WriteReq_avg_mshr_miss_latency::total 75682.281059                       # average WriteReq mshr miss latency
system.cpu.dcache.tags.pwrStateResidencyTicks::UNDEFINED 133791173347000                       # Cumulative time (in ticks) in various power states
system.cpu.dcache.tags.tagsinuse             0.083473                       # Cycle average of tags in use
system.cpu.dcache.tags.total_refs            12438906                       # Total number of references to valid blocks.
system.cpu.dcache.tags.sampled_refs             17144                       # Sample count of references to valid blocks.
system.cpu.dcache.tags.avg_refs            725.554480                       # Average number of references to valid blocks.
system.cpu.dcache.tags.warmup_cycle      133780007476500                       # Cycle when the warmup percentage was hit.
system.cpu.dcache.tags.occ_blocks::.cpu.data     0.000089                       # Average occupied blocks per requestor
system.cpu.dcache.tags.occ_blocks::.switch_cpus.data     0.083384                       # Average occupied blocks per requestor
system.cpu.dcache.tags.occ_percent::.cpu.data     0.000000                       # Average percentage of cache occupancy
system.cpu.dcache.tags.occ_percent::.switch_cpus.data     0.000081                       # Average percentage of cache occupancy
system.cpu.dcache.tags.occ_percent::total     0.000082                       # Average percentage of cache occupancy
system.cpu.dcache.tags.occ_task_id_blocks::1024         1024                       # Occupied blocks per task id
system.cpu.dcache.tags.age_task_id_blocks_1024::0           14                       # Occupied blocks per task id
system.cpu.dcache.tags.age_task_id_blocks_1024::1          128                       # Occupied blocks per task id
system.cpu.dcache.tags.age_task_id_blocks_1024::2          677                       # Occupied blocks per task id
system.cpu.dcache.tags.age_task_id_blocks_1024::3           60                       # Occupied blocks per task id
system.cpu.dcache.tags.age_task_id_blocks_1024::4          145                       # Occupied blocks per task id
system.cpu.dcache.tags.occ_task_id_percent::1024            1                       # Percentage of cache occupancy per task id
system.cpu.dcache.tags.tag_accesses          24896842                       # Number of tag accesses
system.cpu.dcache.tags.data_accesses         24896842                       # Number of data accesses

---------- End Simulation Statistics   ----------
