
---------- Begin Simulation Statistics ----------
final_tick                               270776055702000                       # Number of ticks from beginning of simulation (restored from checkpoints and never reset)
host_inst_rate                                  50608                       # Simulator instruction rate (inst/s)
host_mem_usage                                 804444                       # Number of bytes of host memory used
host_op_rate                                    84514                       # Simulator op (including micro ops) rate (op/s)
host_seconds                                   197.60                       # Real time elapsed on the host
host_tick_rate                               44411792                       # Simulator tick rate (ticks/s)
sim_freq                                 1000000000000                       # Frequency of simulated ticks
sim_insts                                    10000010                       # Number of instructions simulated
sim_ops                                      16699646                       # Number of ops (including micro ops) simulated
sim_seconds                                  0.008776                       # Number of seconds simulated
sim_ticks                                  8775648250                       # Number of ticks simulated
system.cpu.Branches                                 1                       # Number of branches fetched
system.cpu.committedInsts                           7                       # Number of instructions committed
system.cpu.committedOps                            18                       # Number of ops (including micro ops) committed
system.cpu.dtb.rdAccesses                           5                       # TLB accesses on read requests
system.cpu.dtb.rdMisses                             0                       # TLB misses on read requests
system.cpu.dtb.wrAccesses                           1                       # TLB accesses on write requests
system.cpu.dtb.wrMisses                             0                       # TLB misses on write requests
system.cpu.idle_fraction                            0                       # Percentage of idle cycles
system.cpu.itb.rdAccesses                           0                       # TLB accesses on read requests
system.cpu.itb.rdMisses                             0                       # TLB misses on read requests
system.cpu.itb.wrAccesses                           9                       # TLB accesses on write requests
system.cpu.itb.wrMisses                             0                       # TLB misses on write requests
system.cpu.not_idle_fraction                        1                       # Percentage of non-idle cycles
system.cpu.numCycles                               20                       # number of cpu cycles simulated
system.cpu.numWorkItemsCompleted                    0                       # number of work items this cpu completed
system.cpu.numWorkItemsStarted                      0                       # number of work items this cpu started
system.cpu.num_busy_cycles                         20                       # Number of busy cycles
system.cpu.num_cc_register_writes                   2                       # number of times the CC registers were written
system.cpu.num_conditional_control_insts            0                       # number of instructions that are conditional controls
system.cpu.num_fp_alu_accesses                      0                       # Number of float alu accesses
system.cpu.num_fp_insts                             0                       # number of float instructions
system.cpu.num_fp_register_reads                    0                       # number of times the floating registers were read
system.cpu.num_fp_register_writes                   0                       # number of times the floating registers were written
system.cpu.num_func_calls                           1                       # number of times a function call or return occured
system.cpu.num_idle_cycles                          0                       # Number of idle cycles
system.cpu.num_int_alu_accesses                    18                       # Number of integer alu accesses
system.cpu.num_int_insts                           18                       # number of integer instructions
system.cpu.num_int_register_reads                  40                       # number of times the integer registers were read
system.cpu.num_int_register_writes                 16                       # number of times the integer registers were written
system.cpu.num_load_insts                           5                       # Number of load instructions
system.cpu.num_mem_refs                             6                       # number of memory refs
system.cpu.num_store_insts                          1                       # Number of store instructions
system.cpu.num_vec_alu_accesses                     0                       # Number of vector alu accesses
system.cpu.num_vec_insts                            0                       # number of vector instructions
system.cpu.num_vec_register_reads                   0                       # number of times the vector registers were read
system.cpu.num_vec_register_writes                  0                       # number of times the vector registers were written
system.cpu.op_class::No_OpClass                     0      0.00%      0.00% # Class of executed instruction
system.cpu.op_class::IntAlu                        12     66.67%     66.67% # Class of executed instruction
system.cpu.op_class::IntMult                        0      0.00%     66.67% # Class of executed instruction
system.cpu.op_class::IntDiv                         0      0.00%     66.67% # Class of executed instruction
system.cpu.op_class::FloatAdd                       0      0.00%     66.67% # Class of executed instruction
system.cpu.op_class::FloatCmp                       0      0.00%     66.67% # Class of executed instruction
system.cpu.op_class::FloatCvt                       0      0.00%     66.67% # Class of executed instruction
system.cpu.op_class::FloatMult                      0      0.00%     66.67% # Class of executed instruction
system.cpu.op_class::FloatMultAcc                   0      0.00%     66.67% # Class of executed instruction
system.cpu.op_class::FloatDiv                       0      0.00%     66.67% # Class of executed instruction
system.cpu.op_class::FloatMisc                      0      0.00%     66.67% # Class of executed instruction
system.cpu.op_class::FloatSqrt                      0      0.00%     66.67% # Class of executed instruction
system.cpu.op_class::SimdAdd                        0      0.00%     66.67% # Class of executed instruction
system.cpu.op_class::SimdAddAcc                     0      0.00%     66.67% # Class of executed instruction
system.cpu.op_class::SimdAlu                        0      0.00%     66.67% # Class of executed instruction
system.cpu.op_class::SimdCmp                        0      0.00%     66.67% # Class of executed instruction
system.cpu.op_class::SimdCvt                        0      0.00%     66.67% # Class of executed instruction
system.cpu.op_class::SimdMisc                       0      0.00%     66.67% # Class of executed instruction
system.cpu.op_class::SimdMult                       0      0.00%     66.67% # Class of executed instruction
system.cpu.op_class::SimdMultAcc                    0      0.00%     66.67% # Class of executed instruction
system.cpu.op_class::SimdShift                      0      0.00%     66.67% # Class of executed instruction
system.cpu.op_class::SimdShiftAcc                   0      0.00%     66.67% # Class of executed instruction
system.cpu.op_class::SimdDiv                        0      0.00%     66.67% # Class of executed instruction
system.cpu.op_class::SimdSqrt                       0      0.00%     66.67% # Class of executed instruction
system.cpu.op_class::SimdFloatAdd                   0      0.00%     66.67% # Class of executed instruction
system.cpu.op_class::SimdFloatAlu                   0      0.00%     66.67% # Class of executed instruction
system.cpu.op_class::SimdFloatCmp                   0      0.00%     66.67% # Class of executed instruction
system.cpu.op_class::SimdFloatCvt                   0      0.00%     66.67% # Class of executed instruction
system.cpu.op_class::SimdFloatDiv                   0      0.00%     66.67% # Class of executed instruction
system.cpu.op_class::SimdFloatMisc                  0      0.00%     66.67% # Class of executed instruction
system.cpu.op_class::SimdFloatMult                  0      0.00%     66.67% # Class of executed instruction
system.cpu.op_class::SimdFloatMultAcc               0      0.00%     66.67% # Class of executed instruction
system.cpu.op_class::SimdFloatSqrt                  0      0.00%     66.67% # Class of executed instruction
system.cpu.op_class::SimdReduceAdd                  0      0.00%     66.67% # Class of executed instruction
system.cpu.op_class::SimdReduceAlu                  0      0.00%     66.67% # Class of executed instruction
system.cpu.op_class::SimdReduceCmp                  0      0.00%     66.67% # Class of executed instruction
system.cpu.op_class::SimdFloatReduceAdd             0      0.00%     66.67% # Class of executed instruction
system.cpu.op_class::SimdFloatReduceCmp             0      0.00%     66.67% # Class of executed instruction
system.cpu.op_class::SimdAes                        0      0.00%     66.67% # Class of executed instruction
system.cpu.op_class::SimdAesMix                     0      0.00%     66.67% # Class of executed instruction
system.cpu.op_class::SimdSha1Hash                   0      0.00%     66.67% # Class of executed instruction
system.cpu.op_class::SimdSha1Hash2                  0      0.00%     66.67% # Class of executed instruction
system.cpu.op_class::SimdSha256Hash                 0      0.00%     66.67% # Class of executed instruction
system.cpu.op_class::SimdSha256Hash2                0      0.00%     66.67% # Class of executed instruction
system.cpu.op_class::SimdShaSigma2                  0      0.00%     66.67% # Class of executed instruction
system.cpu.op_class::SimdShaSigma3                  0      0.00%     66.67% # Class of executed instruction
system.cpu.op_class::SimdPredAlu                    0      0.00%     66.67% # Class of executed instruction
system.cpu.op_class::MemRead                        5     27.78%     94.44% # Class of executed instruction
system.cpu.op_class::MemWrite                       1      5.56%    100.00% # Class of executed instruction
system.cpu.op_class::FloatMemRead                   0      0.00%    100.00% # Class of executed instruction
system.cpu.op_class::FloatMemWrite                  0      0.00%    100.00% # Class of executed instruction
system.cpu.op_class::IprAccess                      0      0.00%    100.00% # Class of executed instruction
system.cpu.op_class::InstPrefetch                   0      0.00%    100.00% # Class of executed instruction
system.cpu.op_class::total                         18                       # Class of executed instruction
system.cpu.workload.numSyscalls                     0                       # Number of system calls
system.membus.snoop_filter.hit_multi_requests            0                       # Number of requests hitting in the snoop filter with multiple (>1) holders of the requested data.
system.membus.snoop_filter.hit_multi_snoops            0                       # Number of snoops hitting in the snoop filter with multiple (>1) holders of the requested data.
system.membus.snoop_filter.hit_single_requests       153528                       # Number of requests hitting in the snoop filter with a single holder of the requested data.
system.membus.snoop_filter.hit_single_snoops            0                       # Number of snoops hitting in the snoop filter with a single holder of the requested data.
system.membus.snoop_filter.tot_requests        311652                       # Total number of requests made to the snoop filter.
system.membus.snoop_filter.tot_snoops               0                       # Total number of snoops made to the snoop filter.
system.switch_cpus.branchPred.BTBCorrect            0                       # Number of correct BTB predictions (this stat may not work properly.
system.switch_cpus.branchPred.BTBHitPct      0.000000                       # BTB Hit Percentage
system.switch_cpus.branchPred.BTBHits               0                       # Number of BTB hits
system.switch_cpus.branchPred.BTBLookups      1228070                       # Number of BTB lookups
system.switch_cpus.branchPred.RASInCorrect           34                       # Number of incorrect RAS predictions.
system.switch_cpus.branchPred.condIncorrect        60434                       # Number of conditional branches incorrect
system.switch_cpus.branchPred.condPredicted      1257462                       # Number of conditional branches predicted
system.switch_cpus.branchPred.indirectHits       941416                       # Number of indirect target hits.
system.switch_cpus.branchPred.indirectLookups      1228070                       # Number of indirect predictor lookups.
system.switch_cpus.branchPred.indirectMisses       286654                       # Number of indirect misses.
system.switch_cpus.branchPred.lookups         1328670                       # Number of BP lookups
system.switch_cpus.branchPred.usedRAS           35292                       # Number of times the RAS was used to get a target.
system.switch_cpus.branchPredindirectMispredicted        12577                       # Number of mispredicted indirect branches.
system.switch_cpus.cc_regfile_reads           6147180                       # number of cc regfile reads
system.switch_cpus.cc_regfile_writes          4086802                       # number of cc regfile writes
system.switch_cpus.commit.amos                      0                       # Number of atomic instructions committed
system.switch_cpus.commit.branchMispredicts        60501                       # The number of times a branch was mispredicted
system.switch_cpus.commit.branches            1012410                       # Number of branches committed
system.switch_cpus.commit.bw_lim_events       1375431                       # number cycles where commit BW limit reached
system.switch_cpus.commit.commitSquashedInsts      2200469                       # The number of squashed insts skipped by commit
system.switch_cpus.commit.committedInsts     10000003                       # Number of instructions committed
system.switch_cpus.commit.committedOps       16699628                       # Number of ops (including micro ops) committed
system.switch_cpus.commit.committed_per_cycle::samples     17210823                       # Number of insts commited each cycle
system.switch_cpus.commit.committed_per_cycle::mean     0.970298                       # Number of insts commited each cycle
system.switch_cpus.commit.committed_per_cycle::stdev     2.335144                       # Number of insts commited each cycle
system.switch_cpus.commit.committed_per_cycle::underflows            0      0.00%      0.00% # Number of insts commited each cycle
system.switch_cpus.commit.committed_per_cycle::0     13728487     79.77%     79.77% # Number of insts commited each cycle
system.switch_cpus.commit.committed_per_cycle::1       946801      5.50%     85.27% # Number of insts commited each cycle
system.switch_cpus.commit.committed_per_cycle::2       119671      0.70%     85.96% # Number of insts commited each cycle
system.switch_cpus.commit.committed_per_cycle::3       191300      1.11%     87.07% # Number of insts commited each cycle
system.switch_cpus.commit.committed_per_cycle::4       477453      2.77%     89.85% # Number of insts commited each cycle
system.switch_cpus.commit.committed_per_cycle::5       253374      1.47%     91.32% # Number of insts commited each cycle
system.switch_cpus.commit.committed_per_cycle::6        68687      0.40%     91.72% # Number of insts commited each cycle
system.switch_cpus.commit.committed_per_cycle::7        49619      0.29%     92.01% # Number of insts commited each cycle
system.switch_cpus.commit.committed_per_cycle::8      1375431      7.99%    100.00% # Number of insts commited each cycle
system.switch_cpus.commit.committed_per_cycle::overflows            0      0.00%    100.00% # Number of insts commited each cycle
system.switch_cpus.commit.committed_per_cycle::min_value            0                       # Number of insts commited each cycle
system.switch_cpus.commit.committed_per_cycle::max_value            8                       # Number of insts commited each cycle
system.switch_cpus.commit.committed_per_cycle::total     17210823                       # Number of insts commited each cycle
system.switch_cpus.commit.fp_insts            9250008                       # Number of committed floating point instructions.
system.switch_cpus.commit.function_calls        18108                       # Number of function calls committed.
system.switch_cpus.commit.int_insts           9386149                       # Number of committed integer instructions.
system.switch_cpus.commit.loads               2651089                       # Number of loads committed
system.switch_cpus.commit.membars                   0                       # Number of memory barriers committed
system.switch_cpus.commit.op_class_0::No_OpClass        28068      0.17%      0.17% # Class of committed instruction
system.switch_cpus.commit.op_class_0::IntAlu      7077496     42.38%     42.55% # Class of committed instruction
system.switch_cpus.commit.op_class_0::IntMult           15      0.00%     42.55% # Class of committed instruction
system.switch_cpus.commit.op_class_0::IntDiv           77      0.00%     42.55% # Class of committed instruction
system.switch_cpus.commit.op_class_0::FloatAdd       834706      5.00%     47.55% # Class of committed instruction
system.switch_cpus.commit.op_class_0::FloatCmp            0      0.00%     47.55% # Class of committed instruction
system.switch_cpus.commit.op_class_0::FloatCvt            0      0.00%     47.55% # Class of committed instruction
system.switch_cpus.commit.op_class_0::FloatMult            0      0.00%     47.55% # Class of committed instruction
system.switch_cpus.commit.op_class_0::FloatMultAcc            0      0.00%     47.55% # Class of committed instruction
system.switch_cpus.commit.op_class_0::FloatDiv            0      0.00%     47.55% # Class of committed instruction
system.switch_cpus.commit.op_class_0::FloatMisc            0      0.00%     47.55% # Class of committed instruction
system.switch_cpus.commit.op_class_0::FloatSqrt            0      0.00%     47.55% # Class of committed instruction
system.switch_cpus.commit.op_class_0::SimdAdd            0      0.00%     47.55% # Class of committed instruction
system.switch_cpus.commit.op_class_0::SimdAddAcc            0      0.00%     47.55% # Class of committed instruction
system.switch_cpus.commit.op_class_0::SimdAlu      1472440      8.82%     56.37% # Class of committed instruction
system.switch_cpus.commit.op_class_0::SimdCmp            0      0.00%     56.37% # Class of committed instruction
system.switch_cpus.commit.op_class_0::SimdCvt            6      0.00%     56.37% # Class of committed instruction
system.switch_cpus.commit.op_class_0::SimdMisc        40222      0.24%     56.61% # Class of committed instruction
system.switch_cpus.commit.op_class_0::SimdMult            0      0.00%     56.61% # Class of committed instruction
system.switch_cpus.commit.op_class_0::SimdMultAcc            0      0.00%     56.61% # Class of committed instruction
system.switch_cpus.commit.op_class_0::SimdShift            0      0.00%     56.61% # Class of committed instruction
system.switch_cpus.commit.op_class_0::SimdShiftAcc            0      0.00%     56.61% # Class of committed instruction
system.switch_cpus.commit.op_class_0::SimdDiv            0      0.00%     56.61% # Class of committed instruction
system.switch_cpus.commit.op_class_0::SimdSqrt            0      0.00%     56.61% # Class of committed instruction
system.switch_cpus.commit.op_class_0::SimdFloatAdd      1392117      8.34%     64.94% # Class of committed instruction
system.switch_cpus.commit.op_class_0::SimdFloatAlu            0      0.00%     64.94% # Class of committed instruction
system.switch_cpus.commit.op_class_0::SimdFloatCmp        20118      0.12%     65.06% # Class of committed instruction
system.switch_cpus.commit.op_class_0::SimdFloatCvt      1492478      8.94%     74.00% # Class of committed instruction
system.switch_cpus.commit.op_class_0::SimdFloatDiv            0      0.00%     74.00% # Class of committed instruction
system.switch_cpus.commit.op_class_0::SimdFloatMisc            0      0.00%     74.00% # Class of committed instruction
system.switch_cpus.commit.op_class_0::SimdFloatMult      1432276      8.58%     82.58% # Class of committed instruction
system.switch_cpus.commit.op_class_0::SimdFloatMultAcc            0      0.00%     82.58% # Class of committed instruction
system.switch_cpus.commit.op_class_0::SimdFloatSqrt            0      0.00%     82.58% # Class of committed instruction
system.switch_cpus.commit.op_class_0::SimdReduceAdd            0      0.00%     82.58% # Class of committed instruction
system.switch_cpus.commit.op_class_0::SimdReduceAlu            0      0.00%     82.58% # Class of committed instruction
system.switch_cpus.commit.op_class_0::SimdReduceCmp            0      0.00%     82.58% # Class of committed instruction
system.switch_cpus.commit.op_class_0::SimdFloatReduceAdd            0      0.00%     82.58% # Class of committed instruction
system.switch_cpus.commit.op_class_0::SimdFloatReduceCmp            0      0.00%     82.58% # Class of committed instruction
system.switch_cpus.commit.op_class_0::SimdAes            0      0.00%     82.58% # Class of committed instruction
system.switch_cpus.commit.op_class_0::SimdAesMix            0      0.00%     82.58% # Class of committed instruction
system.switch_cpus.commit.op_class_0::SimdSha1Hash            0      0.00%     82.58% # Class of committed instruction
system.switch_cpus.commit.op_class_0::SimdSha1Hash2            0      0.00%     82.58% # Class of committed instruction
system.switch_cpus.commit.op_class_0::SimdSha256Hash            0      0.00%     82.58% # Class of committed instruction
system.switch_cpus.commit.op_class_0::SimdSha256Hash2            0      0.00%     82.58% # Class of committed instruction
system.switch_cpus.commit.op_class_0::SimdShaSigma2            0      0.00%     82.58% # Class of committed instruction
system.switch_cpus.commit.op_class_0::SimdShaSigma3            0      0.00%     82.58% # Class of committed instruction
system.switch_cpus.commit.op_class_0::SimdPredAlu            0      0.00%     82.58% # Class of committed instruction
system.switch_cpus.commit.op_class_0::MemRead       789848      4.73%     87.31% # Class of committed instruction
system.switch_cpus.commit.op_class_0::MemWrite       194915      1.17%     88.47% # Class of committed instruction
system.switch_cpus.commit.op_class_0::FloatMemRead      1861241     11.15%     99.62% # Class of committed instruction
system.switch_cpus.commit.op_class_0::FloatMemWrite        63605      0.38%    100.00% # Class of committed instruction
system.switch_cpus.commit.op_class_0::IprAccess            0      0.00%    100.00% # Class of committed instruction
system.switch_cpus.commit.op_class_0::InstPrefetch            0      0.00%    100.00% # Class of committed instruction
system.switch_cpus.commit.op_class_0::total     16699628                       # Class of committed instruction
system.switch_cpus.commit.refs                2909609                       # Number of memory references committed
system.switch_cpus.commit.swp_count                 0                       # Number of s/w prefetches committed
system.switch_cpus.commit.vec_insts                 0                       # Number of committed Vector instructions.
system.switch_cpus.committedInsts            10000003                       # Number of Instructions Simulated
system.switch_cpus.committedOps              16699628                       # Number of Ops (including micro ops) Simulated
system.switch_cpus.cpi                       1.755127                       # CPI: Cycles Per Instruction
system.switch_cpus.cpi_total                 1.755127                       # CPI: Total CPI of All Threads
system.switch_cpus.decode.BlockedCycles      13678869                       # Number of cycles decode is blocked
system.switch_cpus.decode.DecodedInsts       19634226                       # Number of instructions handled by decode
system.switch_cpus.decode.IdleCycles          1011459                       # Number of cycles decode is idle
system.switch_cpus.decode.RunCycles           1894948                       # Number of cycles decode is running
system.switch_cpus.decode.SquashCycles          60679                       # Number of cycles decode is squashing
system.switch_cpus.decode.UnblockCycles        875623                       # Number of cycles decode is unblocking
system.switch_cpus.dtb.rdAccesses             3019703                       # TLB accesses on read requests
system.switch_cpus.dtb.rdMisses                 10889                       # TLB misses on read requests
system.switch_cpus.dtb.wrAccesses              287864                       # TLB accesses on write requests
system.switch_cpus.dtb.wrMisses                   599                       # TLB misses on write requests
system.switch_cpus.fetch.Branches             1328670                       # Number of branches that fetch encountered
system.switch_cpus.fetch.CacheLines           1492788                       # Number of cache lines fetched
system.switch_cpus.fetch.Cycles              15919927                       # Number of cycles fetch has run and was not squashing or blocked
system.switch_cpus.fetch.IcacheSquashes         12466                       # Number of outstanding Icache misses that were squashed
system.switch_cpus.fetch.Insts               12394489                       # Number of instructions fetch has processed
system.switch_cpus.fetch.MiscStallCycles           61                       # Number of cycles fetch has spent waiting on interrupts, or bad addresses, or out of MSHRs
system.switch_cpus.fetch.PendingTrapStallCycles         1918                       # Number of stall cycles due to pending traps
system.switch_cpus.fetch.SquashCycles          121358                       # Number of cycles fetch has spent squashing
system.switch_cpus.fetch.branchRate          0.075702                       # Number of branch fetches per cycle
system.switch_cpus.fetch.icacheStallCycles      1538994                       # Number of cycles fetch is stalled on an Icache miss
system.switch_cpus.fetch.predictedBranches       976708                       # Number of branches that fetch has predicted taken
system.switch_cpus.fetch.rate                0.706187                       # Number of inst fetches per cycle
system.switch_cpus.fetch.rateDist::samples     17521579                       # Number of instructions fetched each cycle (Total)
system.switch_cpus.fetch.rateDist::mean      1.185791                       # Number of instructions fetched each cycle (Total)
system.switch_cpus.fetch.rateDist::stdev     2.601706                       # Number of instructions fetched each cycle (Total)
system.switch_cpus.fetch.rateDist::underflows            0      0.00%      0.00% # Number of instructions fetched each cycle (Total)
system.switch_cpus.fetch.rateDist::0         13987083     79.83%     79.83% # Number of instructions fetched each cycle (Total)
system.switch_cpus.fetch.rateDist::1           312094      1.78%     81.61% # Number of instructions fetched each cycle (Total)
system.switch_cpus.fetch.rateDist::2           187104      1.07%     82.68% # Number of instructions fetched each cycle (Total)
system.switch_cpus.fetch.rateDist::3           216240      1.23%     83.91% # Number of instructions fetched each cycle (Total)
system.switch_cpus.fetch.rateDist::4           328436      1.87%     85.79% # Number of instructions fetched each cycle (Total)
system.switch_cpus.fetch.rateDist::5           277998      1.59%     87.37% # Number of instructions fetched each cycle (Total)
system.switch_cpus.fetch.rateDist::6           430594      2.46%     89.83% # Number of instructions fetched each cycle (Total)
system.switch_cpus.fetch.rateDist::7           101632      0.58%     90.41% # Number of instructions fetched each cycle (Total)
system.switch_cpus.fetch.rateDist::8          1680398      9.59%    100.00% # Number of instructions fetched each cycle (Total)
system.switch_cpus.fetch.rateDist::overflows            0      0.00%    100.00% # Number of instructions fetched each cycle (Total)
system.switch_cpus.fetch.rateDist::min_value            0                       # Number of instructions fetched each cycle (Total)
system.switch_cpus.fetch.rateDist::max_value            8                       # Number of instructions fetched each cycle (Total)
system.switch_cpus.fetch.rateDist::total     17521579                       # Number of instructions fetched each cycle (Total)
system.switch_cpus.fp_regfile_reads          16019546                       # number of floating regfile reads
system.switch_cpus.fp_regfile_writes          9302031                       # number of floating regfile writes
system.switch_cpus.idleCycles                   29697                       # Total number of cycles that the CPU has spent unscheduled due to idling
system.switch_cpus.iew.branchMispredicts        67511                       # Number of branch mispredicts detected at execute
system.switch_cpus.iew.exec_branches          1088628                       # Number of branches executed
system.switch_cpus.iew.exec_nop                     0                       # number of nop insts executed
system.switch_cpus.iew.exec_rate             1.033412                       # Inst execution rate
system.switch_cpus.iew.exec_refs              3339289                       # number of memory reference insts executed
system.switch_cpus.iew.exec_stores             287855                       # Number of stores executed
system.switch_cpus.iew.exec_swp                     0                       # number of swp insts executed
system.switch_cpus.iew.iewBlockCycles         7440562                       # Number of cycles IEW is blocking
system.switch_cpus.iew.iewDispLoadInsts       3072095                       # Number of dispatched load instructions
system.switch_cpus.iew.iewDispNonSpecInsts            3                       # Number of dispatched non-speculative instructions
system.switch_cpus.iew.iewDispSquashedInsts         5296                       # Number of squashed instructions skipped by dispatch
system.switch_cpus.iew.iewDispStoreInsts       324070                       # Number of dispatched store instructions
system.switch_cpus.iew.iewDispatchedInsts     18897965                       # Number of instructions dispatched to IQ
system.switch_cpus.iew.iewExecLoadInsts       3051434                       # Number of load instructions executed
system.switch_cpus.iew.iewExecSquashedInsts       110500                       # Number of squashed instructions skipped in execute
system.switch_cpus.iew.iewExecutedInsts      18137695                       # Number of executed instructions
system.switch_cpus.iew.iewIQFullEvents          80074                       # Number of times the IQ has become full, causing a stall
system.switch_cpus.iew.iewIdleCycles                0                       # Number of cycles IEW is idle
system.switch_cpus.iew.iewLSQFullEvents        726228                       # Number of times the LSQ has become full, causing a stall
system.switch_cpus.iew.iewSquashCycles          60679                       # Number of cycles IEW is squashing
system.switch_cpus.iew.iewUnblockCycles        855146                       # Number of cycles IEW is unblocking
system.switch_cpus.iew.lsq.thread0.blockedLoads            0                       # Number of blocked loads due to partial load-store forwarding
system.switch_cpus.iew.lsq.thread0.cacheBlocked        21325                       # Number of times an access to memory failed due to the cache being blocked
system.switch_cpus.iew.lsq.thread0.forwLoads        38336                       # Number of loads that had data forwarded from stores
system.switch_cpus.iew.lsq.thread0.ignoredResponses          229                       # Number of memory responses ignored because the instruction is squashed
system.switch_cpus.iew.lsq.thread0.invAddrLoads            0                       # Number of loads ignored due to an invalid address
system.switch_cpus.iew.lsq.thread0.invAddrSwpfs            0                       # Number of software prefetches ignored due to an invalid address
system.switch_cpus.iew.lsq.thread0.memOrderViolation          193                       # Number of memory ordering violations
system.switch_cpus.iew.lsq.thread0.rescheduledLoads           31                       # Number of loads that were rescheduled
system.switch_cpus.iew.lsq.thread0.squashedLoads       420984                       # Number of loads squashed
system.switch_cpus.iew.lsq.thread0.squashedStores        65548                       # Number of stores squashed
system.switch_cpus.iew.memOrderViolationEvents          193                       # Number of memory order violations
system.switch_cpus.iew.predictedNotTakenIncorrect        19659                       # Number of branches that were predicted not taken incorrectly
system.switch_cpus.iew.predictedTakenIncorrect        47852                       # Number of branches that were predicted taken incorrectly
system.switch_cpus.iew.wb_consumers          23658845                       # num instructions consuming a value
system.switch_cpus.iew.wb_count              17907205                       # cumulative count of insts written-back
system.switch_cpus.iew.wb_fanout             0.589596                       # average fanout of values written-back
system.switch_cpus.iew.wb_producers          13949151                       # num instructions producing a value
system.switch_cpus.iew.wb_rate               1.020279                       # insts written-back per cycle
system.switch_cpus.iew.wb_sent               17932909                       # cumulative count of insts sent to commit
system.switch_cpus.int_regfile_reads         15414050                       # number of integer regfile reads
system.switch_cpus.int_regfile_writes         7197903                       # number of integer regfile writes
system.switch_cpus.ipc                       0.569759                       # IPC: Instructions Per Cycle
system.switch_cpus.ipc_total                 0.569759                       # IPC: Total IPC of All Threads
system.switch_cpus.iq.FU_type_0::No_OpClass        35484      0.19%      0.19% # Type of FU issued
system.switch_cpus.iq.FU_type_0::IntAlu       8000878     43.84%     44.04% # Type of FU issued
system.switch_cpus.iq.FU_type_0::IntMult           32      0.00%     44.04% # Type of FU issued
system.switch_cpus.iq.FU_type_0::IntDiv           101      0.00%     44.04% # Type of FU issued
system.switch_cpus.iq.FU_type_0::FloatAdd       898860      4.93%     48.97% # Type of FU issued
system.switch_cpus.iq.FU_type_0::FloatCmp            0      0.00%     48.97% # Type of FU issued
system.switch_cpus.iq.FU_type_0::FloatCvt            0      0.00%     48.97% # Type of FU issued
system.switch_cpus.iq.FU_type_0::FloatMult            0      0.00%     48.97% # Type of FU issued
system.switch_cpus.iq.FU_type_0::FloatMultAcc            0      0.00%     48.97% # Type of FU issued
system.switch_cpus.iq.FU_type_0::FloatDiv            0      0.00%     48.97% # Type of FU issued
system.switch_cpus.iq.FU_type_0::FloatMisc            0      0.00%     48.97% # Type of FU issued
system.switch_cpus.iq.FU_type_0::FloatSqrt            0      0.00%     48.97% # Type of FU issued
system.switch_cpus.iq.FU_type_0::SimdAdd            0      0.00%     48.97% # Type of FU issued
system.switch_cpus.iq.FU_type_0::SimdAddAcc            0      0.00%     48.97% # Type of FU issued
system.switch_cpus.iq.FU_type_0::SimdAlu      1536944      8.42%     57.39% # Type of FU issued
system.switch_cpus.iq.FU_type_0::SimdCmp            0      0.00%     57.39% # Type of FU issued
system.switch_cpus.iq.FU_type_0::SimdCvt           14      0.00%     57.39% # Type of FU issued
system.switch_cpus.iq.FU_type_0::SimdMisc        41287      0.23%     57.61% # Type of FU issued
system.switch_cpus.iq.FU_type_0::SimdMult            0      0.00%     57.61% # Type of FU issued
system.switch_cpus.iq.FU_type_0::SimdMultAcc            0      0.00%     57.61% # Type of FU issued
system.switch_cpus.iq.FU_type_0::SimdShift            0      0.00%     57.61% # Type of FU issued
system.switch_cpus.iq.FU_type_0::SimdShiftAcc            0      0.00%     57.61% # Type of FU issued
system.switch_cpus.iq.FU_type_0::SimdDiv            0      0.00%     57.61% # Type of FU issued
system.switch_cpus.iq.FU_type_0::SimdSqrt            0      0.00%     57.61% # Type of FU issued
system.switch_cpus.iq.FU_type_0::SimdFloatAdd      1394972      7.64%     65.26% # Type of FU issued
system.switch_cpus.iq.FU_type_0::SimdFloatAlu            0      0.00%     65.26% # Type of FU issued
system.switch_cpus.iq.FU_type_0::SimdFloatCmp        20123      0.11%     65.37% # Type of FU issued
system.switch_cpus.iq.FU_type_0::SimdFloatCvt      1498880      8.21%     73.58% # Type of FU issued
system.switch_cpus.iq.FU_type_0::SimdFloatDiv            0      0.00%     73.58% # Type of FU issued
system.switch_cpus.iq.FU_type_0::SimdFloatMisc            0      0.00%     73.58% # Type of FU issued
system.switch_cpus.iq.FU_type_0::SimdFloatMult      1436090      7.87%     81.45% # Type of FU issued
system.switch_cpus.iq.FU_type_0::SimdFloatMultAcc            0      0.00%     81.45% # Type of FU issued
system.switch_cpus.iq.FU_type_0::SimdFloatSqrt            0      0.00%     81.45% # Type of FU issued
system.switch_cpus.iq.FU_type_0::SimdReduceAdd            0      0.00%     81.45% # Type of FU issued
system.switch_cpus.iq.FU_type_0::SimdReduceAlu            0      0.00%     81.45% # Type of FU issued
system.switch_cpus.iq.FU_type_0::SimdReduceCmp            0      0.00%     81.45% # Type of FU issued
system.switch_cpus.iq.FU_type_0::SimdFloatReduceAdd            0      0.00%     81.45% # Type of FU issued
system.switch_cpus.iq.FU_type_0::SimdFloatReduceCmp            0      0.00%     81.45% # Type of FU issued
system.switch_cpus.iq.FU_type_0::SimdAes            0      0.00%     81.45% # Type of FU issued
system.switch_cpus.iq.FU_type_0::SimdAesMix            0      0.00%     81.45% # Type of FU issued
system.switch_cpus.iq.FU_type_0::SimdSha1Hash            0      0.00%     81.45% # Type of FU issued
system.switch_cpus.iq.FU_type_0::SimdSha1Hash2            0      0.00%     81.45% # Type of FU issued
system.switch_cpus.iq.FU_type_0::SimdSha256Hash            0      0.00%     81.45% # Type of FU issued
system.switch_cpus.iq.FU_type_0::SimdSha256Hash2            0      0.00%     81.45% # Type of FU issued
system.switch_cpus.iq.FU_type_0::SimdShaSigma2            0      0.00%     81.45% # Type of FU issued
system.switch_cpus.iq.FU_type_0::SimdShaSigma3            0      0.00%     81.45% # Type of FU issued
system.switch_cpus.iq.FU_type_0::SimdPredAlu            0      0.00%     81.45% # Type of FU issued
system.switch_cpus.iq.FU_type_0::MemRead      1079988      5.92%     87.37% # Type of FU issued
system.switch_cpus.iq.FU_type_0::MemWrite       228386      1.25%     88.62% # Type of FU issued
system.switch_cpus.iq.FU_type_0::FloatMemRead      2012025     11.03%     99.65% # Type of FU issued
system.switch_cpus.iq.FU_type_0::FloatMemWrite        64137      0.35%    100.00% # Type of FU issued
system.switch_cpus.iq.FU_type_0::IprAccess            0      0.00%    100.00% # Type of FU issued
system.switch_cpus.iq.FU_type_0::InstPrefetch            0      0.00%    100.00% # Type of FU issued
system.switch_cpus.iq.FU_type_0::total       18248201                       # Type of FU issued
system.switch_cpus.iq.fp_alu_accesses         9747740                       # Number of floating point alu accesses
system.switch_cpus.iq.fp_inst_queue_reads     19314161                       # Number of floating instruction queue reads
system.switch_cpus.iq.fp_inst_queue_wakeup_accesses      9414275                       # Number of floating instruction queue wakeup accesses
system.switch_cpus.iq.fp_inst_queue_writes     10138878                       # Number of floating instruction queue writes
system.switch_cpus.iq.fu_busy_cnt              316801                       # FU busy when requested
system.switch_cpus.iq.fu_busy_rate           0.017361                       # FU busy rate (busy events/executed inst)
system.switch_cpus.iq.fu_full::No_OpClass            0      0.00%      0.00% # attempts to use FU when none available
system.switch_cpus.iq.fu_full::IntAlu          108294     34.18%     34.18% # attempts to use FU when none available
system.switch_cpus.iq.fu_full::IntMult              0      0.00%     34.18% # attempts to use FU when none available
system.switch_cpus.iq.fu_full::IntDiv               0      0.00%     34.18% # attempts to use FU when none available
system.switch_cpus.iq.fu_full::FloatAdd             0      0.00%     34.18% # attempts to use FU when none available
system.switch_cpus.iq.fu_full::FloatCmp             0      0.00%     34.18% # attempts to use FU when none available
system.switch_cpus.iq.fu_full::FloatCvt             0      0.00%     34.18% # attempts to use FU when none available
system.switch_cpus.iq.fu_full::FloatMult            0      0.00%     34.18% # attempts to use FU when none available
system.switch_cpus.iq.fu_full::FloatMultAcc            0      0.00%     34.18% # attempts to use FU when none available
system.switch_cpus.iq.fu_full::FloatDiv             0      0.00%     34.18% # attempts to use FU when none available
system.switch_cpus.iq.fu_full::FloatMisc            0      0.00%     34.18% # attempts to use FU when none available
system.switch_cpus.iq.fu_full::FloatSqrt            0      0.00%     34.18% # attempts to use FU when none available
system.switch_cpus.iq.fu_full::SimdAdd              0      0.00%     34.18% # attempts to use FU when none available
system.switch_cpus.iq.fu_full::SimdAddAcc            0      0.00%     34.18% # attempts to use FU when none available
system.switch_cpus.iq.fu_full::SimdAlu          51906     16.38%     50.57% # attempts to use FU when none available
system.switch_cpus.iq.fu_full::SimdCmp              0      0.00%     50.57% # attempts to use FU when none available
system.switch_cpus.iq.fu_full::SimdCvt              0      0.00%     50.57% # attempts to use FU when none available
system.switch_cpus.iq.fu_full::SimdMisc             0      0.00%     50.57% # attempts to use FU when none available
system.switch_cpus.iq.fu_full::SimdMult             0      0.00%     50.57% # attempts to use FU when none available
system.switch_cpus.iq.fu_full::SimdMultAcc            0      0.00%     50.57% # attempts to use FU when none available
system.switch_cpus.iq.fu_full::SimdShift            0      0.00%     50.57% # attempts to use FU when none available
system.switch_cpus.iq.fu_full::SimdShiftAcc            0      0.00%     50.57% # attempts to use FU when none available
system.switch_cpus.iq.fu_full::SimdDiv              0      0.00%     50.57% # attempts to use FU when none available
system.switch_cpus.iq.fu_full::SimdSqrt             0      0.00%     50.57% # attempts to use FU when none available
system.switch_cpus.iq.fu_full::SimdFloatAdd        71580     22.59%     73.16% # attempts to use FU when none available
system.switch_cpus.iq.fu_full::SimdFloatAlu            0      0.00%     73.16% # attempts to use FU when none available
system.switch_cpus.iq.fu_full::SimdFloatCmp            0      0.00%     73.16% # attempts to use FU when none available
system.switch_cpus.iq.fu_full::SimdFloatCvt        19633      6.20%     79.36% # attempts to use FU when none available
system.switch_cpus.iq.fu_full::SimdFloatDiv            0      0.00%     79.36% # attempts to use FU when none available
system.switch_cpus.iq.fu_full::SimdFloatMisc            0      0.00%     79.36% # attempts to use FU when none available
system.switch_cpus.iq.fu_full::SimdFloatMult         3838      1.21%     80.57% # attempts to use FU when none available
system.switch_cpus.iq.fu_full::SimdFloatMultAcc            0      0.00%     80.57% # attempts to use FU when none available
system.switch_cpus.iq.fu_full::SimdFloatSqrt            0      0.00%     80.57% # attempts to use FU when none available
system.switch_cpus.iq.fu_full::SimdReduceAdd            0      0.00%     80.57% # attempts to use FU when none available
system.switch_cpus.iq.fu_full::SimdReduceAlu            0      0.00%     80.57% # attempts to use FU when none available
system.switch_cpus.iq.fu_full::SimdReduceCmp            0      0.00%     80.57% # attempts to use FU when none available
system.switch_cpus.iq.fu_full::SimdFloatReduceAdd            0      0.00%     80.57% # attempts to use FU when none available
system.switch_cpus.iq.fu_full::SimdFloatReduceCmp            0      0.00%     80.57% # attempts to use FU when none available
system.switch_cpus.iq.fu_full::SimdAes              0      0.00%     80.57% # attempts to use FU when none available
system.switch_cpus.iq.fu_full::SimdAesMix            0      0.00%     80.57% # attempts to use FU when none available
system.switch_cpus.iq.fu_full::SimdSha1Hash            0      0.00%     80.57% # attempts to use FU when none available
system.switch_cpus.iq.fu_full::SimdSha1Hash2            0      0.00%     80.57% # attempts to use FU when none available
system.switch_cpus.iq.fu_full::SimdSha256Hash            0      0.00%     80.57% # attempts to use FU when none available
system.switch_cpus.iq.fu_full::SimdSha256Hash2            0      0.00%     80.57% # attempts to use FU when none available
system.switch_cpus.iq.fu_full::SimdShaSigma2            0      0.00%     80.57% # attempts to use FU when none available
system.switch_cpus.iq.fu_full::SimdShaSigma3            0      0.00%     80.57% # attempts to use FU when none available
system.switch_cpus.iq.fu_full::SimdPredAlu            0      0.00%     80.57% # attempts to use FU when none available
system.switch_cpus.iq.fu_full::MemRead          21006      6.63%     87.20% # attempts to use FU when none available
system.switch_cpus.iq.fu_full::MemWrite          4203      1.33%     88.53% # attempts to use FU when none available
system.switch_cpus.iq.fu_full::FloatMemRead        36282     11.45%     99.98% # attempts to use FU when none available
system.switch_cpus.iq.fu_full::FloatMemWrite           59      0.02%    100.00% # attempts to use FU when none available
system.switch_cpus.iq.fu_full::IprAccess            0      0.00%    100.00% # attempts to use FU when none available
system.switch_cpus.iq.fu_full::InstPrefetch            0      0.00%    100.00% # attempts to use FU when none available
system.switch_cpus.iq.int_alu_accesses        8781778                       # Number of integer alu accesses
system.switch_cpus.iq.int_inst_queue_reads     35054890                       # Number of integer instruction queue reads
system.switch_cpus.iq.int_inst_queue_wakeup_accesses      8492930                       # Number of integer instruction queue wakeup accesses
system.switch_cpus.iq.int_inst_queue_writes     10957483                       # Number of integer instruction queue writes
system.switch_cpus.iq.iqInstsAdded           18897956                       # Number of instructions added to the IQ (excludes non-spec)
system.switch_cpus.iq.iqInstsIssued          18248201                       # Number of instructions issued
system.switch_cpus.iq.iqNonSpecInstsAdded            9                       # Number of non-speculative instructions added to the IQ
system.switch_cpus.iq.iqSquashedInstsExamined      2198205                       # Number of squashed instructions iterated over during squash; mainly for profiling
system.switch_cpus.iq.iqSquashedInstsIssued        34275                       # Number of squashed instructions issued
system.switch_cpus.iq.iqSquashedNonSpecRemoved            9                       # Number of squashed non-spec instructions that were removed
system.switch_cpus.iq.iqSquashedOperandsExamined      3295556                       # Number of squashed operands that are examined and possibly removed from graph
system.switch_cpus.iq.issued_per_cycle::samples     17521579                       # Number of insts issued each cycle
system.switch_cpus.iq.issued_per_cycle::mean     1.041470                       # Number of insts issued each cycle
system.switch_cpus.iq.issued_per_cycle::stdev     1.899655                       # Number of insts issued each cycle
system.switch_cpus.iq.issued_per_cycle::underflows            0      0.00%      0.00% # Number of insts issued each cycle
system.switch_cpus.iq.issued_per_cycle::0     11911863     67.98%     67.98% # Number of insts issued each cycle
system.switch_cpus.iq.issued_per_cycle::1      1423328      8.12%     76.11% # Number of insts issued each cycle
system.switch_cpus.iq.issued_per_cycle::2      1064280      6.07%     82.18% # Number of insts issued each cycle
system.switch_cpus.iq.issued_per_cycle::3       887627      5.07%     87.25% # Number of insts issued each cycle
system.switch_cpus.iq.issued_per_cycle::4       759000      4.33%     91.58% # Number of insts issued each cycle
system.switch_cpus.iq.issued_per_cycle::5       529816      3.02%     94.60% # Number of insts issued each cycle
system.switch_cpus.iq.issued_per_cycle::6       454161      2.59%     97.19% # Number of insts issued each cycle
system.switch_cpus.iq.issued_per_cycle::7       308646      1.76%     98.96% # Number of insts issued each cycle
system.switch_cpus.iq.issued_per_cycle::8       182858      1.04%    100.00% # Number of insts issued each cycle
system.switch_cpus.iq.issued_per_cycle::overflows            0      0.00%    100.00% # Number of insts issued each cycle
system.switch_cpus.iq.issued_per_cycle::min_value            0                       # Number of insts issued each cycle
system.switch_cpus.iq.issued_per_cycle::max_value            8                       # Number of insts issued each cycle
system.switch_cpus.iq.issued_per_cycle::total     17521579                       # Number of insts issued each cycle
system.switch_cpus.iq.rate                   1.039708                       # Inst issue rate
system.switch_cpus.iq.vec_alu_accesses              0                       # Number of vector alu accesses
system.switch_cpus.iq.vec_inst_queue_reads            0                       # Number of vector instruction queue reads
system.switch_cpus.iq.vec_inst_queue_wakeup_accesses            0                       # Number of vector instruction queue wakeup accesses
system.switch_cpus.iq.vec_inst_queue_writes            0                       # Number of vector instruction queue writes
system.switch_cpus.itb.rdAccesses                   0                       # TLB accesses on read requests
system.switch_cpus.itb.rdMisses                     0                       # TLB misses on read requests
system.switch_cpus.itb.wrAccesses             1493053                       # TLB accesses on write requests
system.switch_cpus.itb.wrMisses                   299                       # TLB misses on write requests
system.switch_cpus.memDep0.conflictingLoads        44717                       # Number of conflicting loads.
system.switch_cpus.memDep0.conflictingStores        17111                       # Number of conflicting stores.
system.switch_cpus.memDep0.insertedLoads      3072095                       # Number of loads inserted to the mem dependence unit.
system.switch_cpus.memDep0.insertedStores       324070                       # Number of stores inserted to the mem dependence unit.
system.switch_cpus.misc_regfile_reads         5605904                       # number of misc regfile reads
system.switch_cpus.misc_regfile_writes              1                       # number of misc regfile writes
system.switch_cpus.numCycles                 17551276                       # number of cpu cycles simulated
system.switch_cpus.numWorkItemsCompleted            0                       # number of work items this cpu completed
system.switch_cpus.numWorkItemsStarted              0                       # number of work items this cpu started
system.switch_cpus.rename.BlockCycles        10874413                       # Number of cycles rename is blocking
system.switch_cpus.rename.CommittedMaps      19126939                       # Number of HB maps that are committed
system.switch_cpus.rename.IQFullEvents        1516038                       # Number of times rename has blocked due to IQ full
system.switch_cpus.rename.IdleCycles          1366483                       # Number of cycles rename is idle
system.switch_cpus.rename.LQFullEvents         396404                       # Number of times rename has blocked due to LQ full
system.switch_cpus.rename.ROBFullEvents        136301                       # Number of times rename has blocked due to ROB full
system.switch_cpus.rename.RenameLookups      46970657                       # Number of register rename lookups that rename has made
system.switch_cpus.rename.RenamedInsts       19346643                       # Number of instructions processed by rename
system.switch_cpus.rename.RenamedOperands     22294061                       # Number of destination operands rename has renamed
system.switch_cpus.rename.RunCycles           2359663                       # Number of cycles rename is running
system.switch_cpus.rename.SQFullEvents         675335                       # Number of times rename has blocked due to SQ full
system.switch_cpus.rename.SquashCycles          60679                       # Number of cycles rename is squashing
system.switch_cpus.rename.UnblockCycles       2860340                       # Number of cycles rename is unblocking
system.switch_cpus.rename.UndoneMaps          3166964                       # Number of HB maps that are undone due to squashing
system.switch_cpus.rename.fp_rename_lookups     16834467                       # Number of floating rename lookups
system.switch_cpus.rename.int_rename_lookups     17024109                       # Number of integer rename lookups
system.switch_cpus.rename.serializeStallCycles            0                       # count of cycles rename stalled for serializing inst
system.switch_cpus.rename.serializingInsts            0                       # count of serializing insts renamed
system.switch_cpus.rename.skidInsts           4557716                       # count of insts added to the skid buffer
system.switch_cpus.rename.tempSerializingInsts            0                       # count of temporary serializing insts renamed
system.switch_cpus.rob.rob_reads             34735489                       # The number of ROB reads
system.switch_cpus.rob.rob_writes            38111684                       # The number of ROB writes
system.switch_cpus.timesIdled                     362                       # Number of times that the entire CPU went into an idle state and unscheduled itself
system.tol2bus.snoop_filter.hit_multi_requests            0                       # Number of requests hitting in the snoop filter with multiple (>1) holders of the requested data.
system.tol2bus.snoop_filter.hit_multi_snoops            0                       # Number of snoops hitting in the snoop filter with multiple (>1) holders of the requested data.
system.tol2bus.snoop_filter.hit_single_requests       183556                       # Number of requests hitting in the snoop filter with a single holder of the requested data.
system.tol2bus.snoop_filter.hit_single_snoops        59388                       # Number of snoops hitting in the snoop filter with a single holder of the requested data.
system.tol2bus.snoop_filter.tot_requests       368426                       # Total number of requests made to the snoop filter.
system.tol2bus.snoop_filter.tot_snoops          59388                       # Total number of snoops made to the snoop filter.
system.membus.pwrStateResidencyTicks::UNDEFINED 270776055702000                       # Cumulative time (in ticks) in various power states
system.membus.trans_dist::ReadResp             146611                       # Transaction distribution
system.membus.trans_dist::WritebackDirty        15879                       # Transaction distribution
system.membus.trans_dist::CleanEvict           137649                       # Transaction distribution
system.membus.trans_dist::ReadExReq             11512                       # Transaction distribution
system.membus.trans_dist::ReadExResp            11512                       # Transaction distribution
system.membus.trans_dist::ReadSharedReq        146612                       # Transaction distribution
system.membus.pkt_count_system.l2.mem_side::system.mem_ctrls.port       469775                       # Packet count per connected master and slave (bytes)
system.membus.pkt_count_system.l2.mem_side::total       469775                       # Packet count per connected master and slave (bytes)
system.membus.pkt_count::total                 469775                       # Packet count per connected master and slave (bytes)
system.membus.pkt_size_system.l2.mem_side::system.mem_ctrls.port     11136128                       # Cumulative packet size per connected master and slave (bytes)
system.membus.pkt_size_system.l2.mem_side::total     11136128                       # Cumulative packet size per connected master and slave (bytes)
system.membus.pkt_size::total                11136128                       # Cumulative packet size per connected master and slave (bytes)
system.membus.snoops                                0                       # Total snoops (count)
system.membus.snoopTraffic                          0                       # Total snoop traffic (bytes)
system.membus.snoop_fanout::samples            158124                       # Request fanout histogram
system.membus.snoop_fanout::mean                    0                       # Request fanout histogram
system.membus.snoop_fanout::stdev                   0                       # Request fanout histogram
system.membus.snoop_fanout::underflows              0      0.00%      0.00% # Request fanout histogram
system.membus.snoop_fanout::0                  158124    100.00%    100.00% # Request fanout histogram
system.membus.snoop_fanout::1                       0      0.00%    100.00% # Request fanout histogram
system.membus.snoop_fanout::overflows               0      0.00%    100.00% # Request fanout histogram
system.membus.snoop_fanout::min_value               0                       # Request fanout histogram
system.membus.snoop_fanout::max_value               0                       # Request fanout histogram
system.membus.snoop_fanout::total              158124                       # Request fanout histogram
system.membus.reqLayer2.occupancy           407727000                       # Layer occupancy (ticks)
system.membus.reqLayer2.utilization               4.6                       # Layer utilization (%)
system.membus.respLayer1.occupancy          844943250                       # Layer occupancy (ticks)
system.membus.respLayer1.utilization              9.6                       # Layer utilization (%)
system.switch_cpus.pwrStateResidencyTicks::OFF   8775648250                       # Cumulative time (in ticks) in various power states
system.switch_cpus.dtb.walker.pwrStateResidencyTicks::UNDEFINED 270776055702000                       # Cumulative time (in ticks) in various power states
system.switch_cpus.itb.walker.pwrStateResidencyTicks::UNDEFINED 270776055702000                       # Cumulative time (in ticks) in various power states
system.tol2bus.pwrStateResidencyTicks::UNDEFINED 270776055702000                       # Cumulative time (in ticks) in various power states
system.tol2bus.trans_dist::ReadResp            172529                       # Transaction distribution
system.tol2bus.trans_dist::WritebackDirty        43236                       # Transaction distribution
system.tol2bus.trans_dist::WritebackClean          167                       # Transaction distribution
system.tol2bus.trans_dist::CleanEvict          299844                       # Transaction distribution
system.tol2bus.trans_dist::ReadExReq            12340                       # Transaction distribution
system.tol2bus.trans_dist::ReadExResp           12340                       # Transaction distribution
system.tol2bus.trans_dist::ReadCleanReq           456                       # Transaction distribution
system.tol2bus.trans_dist::ReadSharedReq       172074                       # Transaction distribution
system.tol2bus.pkt_count_system.cpu.icache.mem_side::system.l2.cpu_side         1079                       # Packet count per connected master and slave (bytes)
system.tol2bus.pkt_count_system.cpu.dcache.mem_side::system.l2.cpu_side       552216                       # Packet count per connected master and slave (bytes)
system.tol2bus.pkt_count::total                553295                       # Packet count per connected master and slave (bytes)
system.tol2bus.pkt_size_system.cpu.icache.mem_side::system.l2.cpu_side        39872                       # Cumulative packet size per connected master and slave (bytes)
system.tol2bus.pkt_size_system.cpu.dcache.mem_side::system.l2.cpu_side     13553280                       # Cumulative packet size per connected master and slave (bytes)
system.tol2bus.pkt_size::total               13593152                       # Cumulative packet size per connected master and slave (bytes)
system.tol2bus.snoops                          159691                       # Total snoops (count)
system.tol2bus.snoopTraffic                   1016256                       # Total snoop traffic (bytes)
system.tol2bus.snoop_fanout::samples           344561                       # Request fanout histogram
system.tol2bus.snoop_fanout::mean            0.172358                       # Request fanout histogram
system.tol2bus.snoop_fanout::stdev           0.377692                       # Request fanout histogram
system.tol2bus.snoop_fanout::underflows             0      0.00%      0.00% # Request fanout histogram
system.tol2bus.snoop_fanout::0                 285173     82.76%     82.76% # Request fanout histogram
system.tol2bus.snoop_fanout::1                  59388     17.24%    100.00% # Request fanout histogram
system.tol2bus.snoop_fanout::2                      0      0.00%    100.00% # Request fanout histogram
system.tol2bus.snoop_fanout::3                      0      0.00%    100.00% # Request fanout histogram
system.tol2bus.snoop_fanout::4                      0      0.00%    100.00% # Request fanout histogram
system.tol2bus.snoop_fanout::overflows              0      0.00%    100.00% # Request fanout histogram
system.tol2bus.snoop_fanout::min_value              0                       # Request fanout histogram
system.tol2bus.snoop_fanout::max_value              1                       # Request fanout histogram
system.tol2bus.snoop_fanout::total             344561                       # Request fanout histogram
system.tol2bus.reqLayer0.occupancy          211734500                       # Layer occupancy (ticks)
system.tol2bus.reqLayer0.utilization              2.4                       # Layer utilization (%)
system.tol2bus.respLayer1.occupancy         276615000                       # Layer occupancy (ticks)
system.tol2bus.respLayer1.utilization             3.2                       # Layer utilization (%)
system.tol2bus.respLayer0.occupancy            681499                       # Layer occupancy (ticks)
system.tol2bus.respLayer0.utilization             0.0                       # Layer utilization (%)
system.voltage_domain.voltage                       1                       # Voltage in Volts
system.clk_domain.clock                          1000                       # Clock period in ticks
system.l2.pwrStateResidencyTicks::UNDEFINED 270776055702000                       # Cumulative time (in ticks) in various power states
system.l2.demand_hits::.switch_cpus.inst           20                       # number of demand (read+write) hits
system.l2.demand_hits::.switch_cpus.data        26726                       # number of demand (read+write) hits
system.l2.demand_hits::total                    26746                       # number of demand (read+write) hits
system.l2.overall_hits::.switch_cpus.inst           20                       # number of overall hits
system.l2.overall_hits::.switch_cpus.data        26726                       # number of overall hits
system.l2.overall_hits::total                   26746                       # number of overall hits
system.l2.demand_misses::.cpu.inst                  2                       # number of demand (read+write) misses
system.l2.demand_misses::.cpu.data                  3                       # number of demand (read+write) misses
system.l2.demand_misses::.switch_cpus.inst          434                       # number of demand (read+write) misses
system.l2.demand_misses::.switch_cpus.data       157685                       # number of demand (read+write) misses
system.l2.demand_misses::total                 158124                       # number of demand (read+write) misses
system.l2.overall_misses::.cpu.inst                 2                       # number of overall misses
system.l2.overall_misses::.cpu.data                 3                       # number of overall misses
system.l2.overall_misses::.switch_cpus.inst          434                       # number of overall misses
system.l2.overall_misses::.switch_cpus.data       157685                       # number of overall misses
system.l2.overall_misses::total                158124                       # number of overall misses
system.l2.demand_miss_latency::.switch_cpus.inst     39061500                       # number of demand (read+write) miss cycles
system.l2.demand_miss_latency::.switch_cpus.data  12959164500                       # number of demand (read+write) miss cycles
system.l2.demand_miss_latency::total      12998226000                       # number of demand (read+write) miss cycles
system.l2.overall_miss_latency::.switch_cpus.inst     39061500                       # number of overall miss cycles
system.l2.overall_miss_latency::.switch_cpus.data  12959164500                       # number of overall miss cycles
system.l2.overall_miss_latency::total     12998226000                       # number of overall miss cycles
system.l2.demand_accesses::.cpu.inst                2                       # number of demand (read+write) accesses
system.l2.demand_accesses::.cpu.data                3                       # number of demand (read+write) accesses
system.l2.demand_accesses::.switch_cpus.inst          454                       # number of demand (read+write) accesses
system.l2.demand_accesses::.switch_cpus.data       184411                       # number of demand (read+write) accesses
system.l2.demand_accesses::total               184870                       # number of demand (read+write) accesses
system.l2.overall_accesses::.cpu.inst               2                       # number of overall (read+write) accesses
system.l2.overall_accesses::.cpu.data               3                       # number of overall (read+write) accesses
system.l2.overall_accesses::.switch_cpus.inst          454                       # number of overall (read+write) accesses
system.l2.overall_accesses::.switch_cpus.data       184411                       # number of overall (read+write) accesses
system.l2.overall_accesses::total              184870                       # number of overall (read+write) accesses
system.l2.demand_miss_rate::.cpu.inst               1                       # miss rate for demand accesses
system.l2.demand_miss_rate::.cpu.data               1                       # miss rate for demand accesses
system.l2.demand_miss_rate::.switch_cpus.inst     0.955947                       # miss rate for demand accesses
system.l2.demand_miss_rate::.switch_cpus.data     0.855074                       # miss rate for demand accesses
system.l2.demand_miss_rate::total            0.855325                       # miss rate for demand accesses
system.l2.overall_miss_rate::.cpu.inst              1                       # miss rate for overall accesses
system.l2.overall_miss_rate::.cpu.data              1                       # miss rate for overall accesses
system.l2.overall_miss_rate::.switch_cpus.inst     0.955947                       # miss rate for overall accesses
system.l2.overall_miss_rate::.switch_cpus.data     0.855074                       # miss rate for overall accesses
system.l2.overall_miss_rate::total           0.855325                       # miss rate for overall accesses
system.l2.demand_avg_miss_latency::.switch_cpus.inst 90003.456221                       # average overall miss latency
system.l2.demand_avg_miss_latency::.switch_cpus.data 82183.876082                       # average overall miss latency
system.l2.demand_avg_miss_latency::total 82202.739622                       # average overall miss latency
system.l2.overall_avg_miss_latency::.switch_cpus.inst 90003.456221                       # average overall miss latency
system.l2.overall_avg_miss_latency::.switch_cpus.data 82183.876082                       # average overall miss latency
system.l2.overall_avg_miss_latency::total 82202.739622                       # average overall miss latency
system.l2.blocked_cycles::no_mshrs                  0                       # number of cycles access was blocked
system.l2.blocked_cycles::no_targets                0                       # number of cycles access was blocked
system.l2.blocked::no_mshrs                         0                       # number of cycles access was blocked
system.l2.blocked::no_targets                       0                       # number of cycles access was blocked
system.l2.avg_blocked_cycles::no_mshrs            nan                       # average number of cycles each access was blocked
system.l2.avg_blocked_cycles::no_targets          nan                       # average number of cycles each access was blocked
system.l2.writebacks::.writebacks               15879                       # number of writebacks
system.l2.writebacks::total                     15879                       # number of writebacks
system.l2.demand_mshr_misses::.switch_cpus.inst          434                       # number of demand (read+write) MSHR misses
system.l2.demand_mshr_misses::.switch_cpus.data       157685                       # number of demand (read+write) MSHR misses
system.l2.demand_mshr_misses::total            158119                       # number of demand (read+write) MSHR misses
system.l2.overall_mshr_misses::.switch_cpus.inst          434                       # number of overall MSHR misses
system.l2.overall_mshr_misses::.switch_cpus.data       157685                       # number of overall MSHR misses
system.l2.overall_mshr_misses::total           158119                       # number of overall MSHR misses
system.l2.demand_mshr_miss_latency::.switch_cpus.inst     34721500                       # number of demand (read+write) MSHR miss cycles
system.l2.demand_mshr_miss_latency::.switch_cpus.data  11382324500                       # number of demand (read+write) MSHR miss cycles
system.l2.demand_mshr_miss_latency::total  11417046000                       # number of demand (read+write) MSHR miss cycles
system.l2.overall_mshr_miss_latency::.switch_cpus.inst     34721500                       # number of overall MSHR miss cycles
system.l2.overall_mshr_miss_latency::.switch_cpus.data  11382324500                       # number of overall MSHR miss cycles
system.l2.overall_mshr_miss_latency::total  11417046000                       # number of overall MSHR miss cycles
system.l2.demand_mshr_miss_rate::.switch_cpus.inst     0.955947                       # mshr miss rate for demand accesses
system.l2.demand_mshr_miss_rate::.switch_cpus.data     0.855074                       # mshr miss rate for demand accesses
system.l2.demand_mshr_miss_rate::total       0.855298                       # mshr miss rate for demand accesses
system.l2.overall_mshr_miss_rate::.switch_cpus.inst     0.955947                       # mshr miss rate for overall accesses
system.l2.overall_mshr_miss_rate::.switch_cpus.data     0.855074                       # mshr miss rate for overall accesses
system.l2.overall_mshr_miss_rate::total      0.855298                       # mshr miss rate for overall accesses
system.l2.demand_avg_mshr_miss_latency::.switch_cpus.inst 80003.456221                       # average overall mshr miss latency
system.l2.demand_avg_mshr_miss_latency::.switch_cpus.data 72183.939500                       # average overall mshr miss latency
system.l2.demand_avg_mshr_miss_latency::total 72205.402260                       # average overall mshr miss latency
system.l2.overall_avg_mshr_miss_latency::.switch_cpus.inst 80003.456221                       # average overall mshr miss latency
system.l2.overall_avg_mshr_miss_latency::.switch_cpus.data 72183.939500                       # average overall mshr miss latency
system.l2.overall_avg_mshr_miss_latency::total 72205.402260                       # average overall mshr miss latency
system.l2.replacements                         159691                       # number of replacements
system.l2.WritebackDirty_hits::.writebacks        27357                       # number of WritebackDirty hits
system.l2.WritebackDirty_hits::total            27357                       # number of WritebackDirty hits
system.l2.WritebackDirty_accesses::.writebacks        27357                       # number of WritebackDirty accesses(hits+misses)
system.l2.WritebackDirty_accesses::total        27357                       # number of WritebackDirty accesses(hits+misses)
system.l2.WritebackClean_hits::.writebacks          167                       # number of WritebackClean hits
system.l2.WritebackClean_hits::total              167                       # number of WritebackClean hits
system.l2.WritebackClean_accesses::.writebacks          167                       # number of WritebackClean accesses(hits+misses)
system.l2.WritebackClean_accesses::total          167                       # number of WritebackClean accesses(hits+misses)
system.l2.CleanEvict_mshr_misses::.writebacks        53225                       # number of CleanEvict MSHR misses
system.l2.CleanEvict_mshr_misses::total         53225                       # number of CleanEvict MSHR misses
system.l2.CleanEvict_mshr_miss_rate::.writebacks          inf                       # mshr miss rate for CleanEvict accesses
system.l2.CleanEvict_mshr_miss_rate::total          inf                       # mshr miss rate for CleanEvict accesses
system.l2.ReadExReq_hits::.switch_cpus.data          828                       # number of ReadExReq hits
system.l2.ReadExReq_hits::total                   828                       # number of ReadExReq hits
system.l2.ReadExReq_misses::.cpu.data               1                       # number of ReadExReq misses
system.l2.ReadExReq_misses::.switch_cpus.data        11511                       # number of ReadExReq misses
system.l2.ReadExReq_misses::total               11512                       # number of ReadExReq misses
system.l2.ReadExReq_miss_latency::.switch_cpus.data    926328000                       # number of ReadExReq miss cycles
system.l2.ReadExReq_miss_latency::total     926328000                       # number of ReadExReq miss cycles
system.l2.ReadExReq_accesses::.cpu.data             1                       # number of ReadExReq accesses(hits+misses)
system.l2.ReadExReq_accesses::.switch_cpus.data        12339                       # number of ReadExReq accesses(hits+misses)
system.l2.ReadExReq_accesses::total             12340                       # number of ReadExReq accesses(hits+misses)
system.l2.ReadExReq_miss_rate::.cpu.data            1                       # miss rate for ReadExReq accesses
system.l2.ReadExReq_miss_rate::.switch_cpus.data     0.932896                       # miss rate for ReadExReq accesses
system.l2.ReadExReq_miss_rate::total         0.932901                       # miss rate for ReadExReq accesses
system.l2.ReadExReq_avg_miss_latency::.switch_cpus.data 80473.286422                       # average ReadExReq miss latency
system.l2.ReadExReq_avg_miss_latency::total 80466.296039                       # average ReadExReq miss latency
system.l2.ReadExReq_mshr_misses::.switch_cpus.data        11511                       # number of ReadExReq MSHR misses
system.l2.ReadExReq_mshr_misses::total          11511                       # number of ReadExReq MSHR misses
system.l2.ReadExReq_mshr_miss_latency::.switch_cpus.data    811218000                       # number of ReadExReq MSHR miss cycles
system.l2.ReadExReq_mshr_miss_latency::total    811218000                       # number of ReadExReq MSHR miss cycles
system.l2.ReadExReq_mshr_miss_rate::.switch_cpus.data     0.932896                       # mshr miss rate for ReadExReq accesses
system.l2.ReadExReq_mshr_miss_rate::total     0.932820                       # mshr miss rate for ReadExReq accesses
system.l2.ReadExReq_avg_mshr_miss_latency::.switch_cpus.data 70473.286422                       # average ReadExReq mshr miss latency
system.l2.ReadExReq_avg_mshr_miss_latency::total 70473.286422                       # average ReadExReq mshr miss latency
system.l2.ReadCleanReq_hits::.switch_cpus.inst           20                       # number of ReadCleanReq hits
system.l2.ReadCleanReq_hits::total                 20                       # number of ReadCleanReq hits
system.l2.ReadCleanReq_misses::.cpu.inst            2                       # number of ReadCleanReq misses
system.l2.ReadCleanReq_misses::.switch_cpus.inst          434                       # number of ReadCleanReq misses
system.l2.ReadCleanReq_misses::total              436                       # number of ReadCleanReq misses
system.l2.ReadCleanReq_miss_latency::.switch_cpus.inst     39061500                       # number of ReadCleanReq miss cycles
system.l2.ReadCleanReq_miss_latency::total     39061500                       # number of ReadCleanReq miss cycles
system.l2.ReadCleanReq_accesses::.cpu.inst            2                       # number of ReadCleanReq accesses(hits+misses)
system.l2.ReadCleanReq_accesses::.switch_cpus.inst          454                       # number of ReadCleanReq accesses(hits+misses)
system.l2.ReadCleanReq_accesses::total            456                       # number of ReadCleanReq accesses(hits+misses)
system.l2.ReadCleanReq_miss_rate::.cpu.inst            1                       # miss rate for ReadCleanReq accesses
system.l2.ReadCleanReq_miss_rate::.switch_cpus.inst     0.955947                       # miss rate for ReadCleanReq accesses
[...]
system.cpu.itb.walker.pwrStateResidencyTicks::UNDEFINED 270802460398000                       # Cumulative time (in ticks) in various power states
system.cpu.dtb_walker_cache.pwrStateResidencyTicks::UNDEFINED 270802460398000                       # Cumulative time (in ticks) in various power states
system.cpu.dtb_walker_cache.blocked_cycles::no_mshrs            0                       # number of cycles access was blocked
system.cpu.dtb_walker_cache.blocked_cycles::no_targets            0                       # number of cycles access was blocked
system.cpu.dtb_walker_cache.blocked::no_mshrs            0                       # number of cycles access was blocked
system.cpu.dtb_walker_cache.blocked::no_targets            0                       # number of cycles access was blocked
system.cpu.dtb_walker_cache.avg_blocked_cycles::no_mshrs          nan                       # average number of cycles each access was blocked
system.cpu.dtb_walker_cache.avg_blocked_cycles::no_targets          nan                       # average number of cycles each access was blocked
system.cpu.dtb_walker_cache.replacements            0                       # number of replacements
system.cpu.dtb_walker_cache.tags.pwrStateResidencyTicks::UNDEFINED 270802460398000                       # Cumulative time (in ticks) in various power states
system.cpu.dtb_walker_cache.tags.tagsinuse            0                       # Cycle average of tags in use
system.cpu.dtb_walker_cache.tags.total_refs            0                       # Total number of references to valid blocks.
system.cpu.dtb_walker_cache.tags.sampled_refs            0                       # Sample count of references to valid blocks.
system.cpu.dtb_walker_cache.tags.avg_refs          nan                       # Average number of references to valid blocks.
system.cpu.dtb_walker_cache.tags.warmup_cycle            0                       # Cycle when the warmup percentage was hit.
system.cpu.dtb_walker_cache.tags.tag_accesses            0                       # Number of tag accesses
system.cpu.dtb_walker_cache.tags.data_accesses            0                       # Number of data accesses
system.cpu.dcache.pwrStateResidencyTicks::UNDEFINED 270802460398000                       # Cumulative time (in ticks) in various power states
system.cpu.dcache.demand_hits::.cpu.data            3                       # number of demand (read+write) hits
system.cpu.dcache.demand_hits::.switch_cpus.data     10292013                       # number of demand (read+write) hits
system.cpu.dcache.demand_hits::total         10292016                       # number of demand (read+write) hits
system.cpu.dcache.overall_hits::.cpu.data            3                       # number of overall hits
system.cpu.dcache.overall_hits::.switch_cpus.data     10308134                       # number of overall hits
system.cpu.dcache.overall_hits::total        10308137                       # number of overall hits
system.cpu.dcache.demand_misses::.cpu.data            3                       # number of demand (read+write) misses
system.cpu.dcache.demand_misses::.switch_cpus.data      3019815                       # number of demand (read+write) misses
system.cpu.dcache.demand_misses::total        3019818                       # number of demand (read+write) misses
system.cpu.dcache.overall_misses::.cpu.data            3                       # number of overall misses
system.cpu.dcache.overall_misses::.switch_cpus.data      3020115                       # number of overall misses
system.cpu.dcache.overall_misses::total       3020118                       # number of overall misses
system.cpu.dcache.demand_miss_latency::.switch_cpus.data 194328218836                       # number of demand (read+write) miss cycles
system.cpu.dcache.demand_miss_latency::total 194328218836                       # number of demand (read+write) miss cycles
system.cpu.dcache.overall_miss_latency::.switch_cpus.data 194328218836                       # number of overall miss cycles
system.cpu.dcache.overall_miss_latency::total 194328218836                       # number of overall miss cycles
system.cpu.dcache.demand_accesses::.cpu.data            6                       # number of demand (read+write) accesses
system.cpu.dcache.demand_accesses::.switch_cpus.data     13311828                       # number of demand (read+write) accesses
system.cpu.dcache.demand_accesses::total     13311834                       # number of demand (read+write) accesses
system.cpu.dcache.overall_accesses::.cpu.data            6                       # number of overall (read+write) accesses
system.cpu.dcache.overall_accesses::.switch_cpus.data     13328249                       # number of overall (read+write) accesses
system.cpu.dcache.overall_accesses::total     13328255                       # number of overall (read+write) accesses
system.cpu.dcache.demand_miss_rate::.cpu.data     0.500000                       # miss rate for demand accesses
system.cpu.dcache.demand_miss_rate::.switch_cpus.data     0.226852                       # miss rate for demand accesses
system.cpu.dcache.demand_miss_rate::total     0.226852                       # miss rate for demand accesses
system.cpu.dcache.overall_miss_rate::.cpu.data     0.500000                       # miss rate for overall accesses
system.cpu.dcache.overall_miss_rate::.switch_cpus.data     0.226595                       # miss rate for overall accesses
system.cpu.dcache.overall_miss_rate::total     0.226595                       # miss rate for overall accesses
system.cpu.dcache.demand_avg_miss_latency::.switch_cpus.data 64351.034363                       # average overall miss latency
system.cpu.dcache.demand_avg_miss_latency::total 64350.970435                       # average overall miss latency
system.cpu.dcache.overall_avg_miss_latency::.switch_cpus.data 64344.642120                       # average overall miss latency
system.cpu.dcache.overall_avg_miss_latency::total 64344.578204                       # average overall miss latency
system.cpu.dcache.blocked_cycles::no_mshrs      3630056                       # number of cycles access was blocked
system.cpu.dcache.blocked_cycles::no_targets           90                       # number of cycles access was blocked
system.cpu.dcache.blocked::no_mshrs            100507                       # number of cycles access was blocked
system.cpu.dcache.blocked::no_targets               1                       # number of cycles access was blocked
system.cpu.dcache.avg_blocked_cycles::no_mshrs    36.117445                       # average number of cycles each access was blocked
system.cpu.dcache.avg_blocked_cycles::no_targets           90                       # average number of cycles each access was blocked
system.cpu.dcache.writebacks::.writebacks       109401                       # number of writebacks
system.cpu.dcache.writebacks::total            109401                       # number of writebacks
system.cpu.dcache.demand_mshr_hits::.switch_cpus.data      2265626                       # number of demand (read+write) MSHR hits
system.cpu.dcache.demand_mshr_hits::total      2265626                       # number of demand (read+write) MSHR hits
system.cpu.dcache.overall_mshr_hits::.switch_cpus.data      2265626                       # number of overall MSHR hits
system.cpu.dcache.overall_mshr_hits::total      2265626                       # number of overall MSHR hits
system.cpu.dcache.demand_mshr_misses::.switch_cpus.data       754189                       # number of demand (read+write) MSHR misses
system.cpu.dcache.demand_mshr_misses::total       754189                       # number of demand (read+write) MSHR misses
system.cpu.dcache.overall_mshr_misses::.switch_cpus.data       754349                       # number of overall MSHR misses
system.cpu.dcache.overall_mshr_misses::total       754349                       # number of overall MSHR misses
system.cpu.dcache.demand_mshr_miss_latency::.switch_cpus.data  54579559340                       # number of demand (read+write) MSHR miss cycles
system.cpu.dcache.demand_mshr_miss_latency::total  54579559340                       # number of demand (read+write) MSHR miss cycles
system.cpu.dcache.overall_mshr_miss_latency::.switch_cpus.data  54587752840                       # number of overall MSHR miss cycles
system.cpu.dcache.overall_mshr_miss_latency::total  54587752840                       # number of overall MSHR miss cycles
system.cpu.dcache.demand_mshr_miss_rate::.switch_cpus.data     0.056656                       # mshr miss rate for demand accesses
system.cpu.dcache.demand_mshr_miss_rate::total     0.056656                       # mshr miss rate for demand accesses
system.cpu.dcache.overall_mshr_miss_rate::.switch_cpus.data     0.056598                       # mshr miss rate for overall accesses
system.cpu.dcache.overall_mshr_miss_rate::total     0.056598                       # mshr miss rate for overall accesses
system.cpu.dcache.demand_avg_mshr_miss_latency::.switch_cpus.data 72368.543349                       # average overall mshr miss latency
system.cpu.dcache.demand_avg_mshr_miss_latency::total 72368.543349                       # average overall mshr miss latency
system.cpu.dcache.overall_avg_mshr_miss_latency::.switch_cpus.data 72364.055417                       # average overall mshr miss latency
system.cpu.dcache.overall_avg_mshr_miss_latency::total 72364.055417                       # average overall mshr miss latency
system.cpu.dcache.replacements                 753327                       # number of replacements
system.cpu.dcache.ReadReq_hits::.cpu.data            3                       # number of ReadReq hits
system.cpu.dcache.ReadReq_hits::.switch_cpus.data      9088979                       # number of ReadReq hits
system.cpu.dcache.ReadReq_hits::total         9088982                       # number of ReadReq hits
system.cpu.dcache.ReadReq_misses::.cpu.data            2                       # number of ReadReq misses
system.cpu.dcache.ReadReq_misses::.switch_cpus.data      2973256                       # number of ReadReq misses
system.cpu.dcache.ReadReq_misses::total       2973258                       # number of ReadReq misses
system.cpu.dcache.ReadReq_miss_latency::.switch_cpus.data 190784642500                       # number of ReadReq miss cycles
system.cpu.dcache.ReadReq_miss_latency::total 190784642500                       # number of ReadReq miss cycles
system.cpu.dcache.ReadReq_accesses::.cpu.data            5                       # number of ReadReq accesses(hits+misses)
system.cpu.dcache.ReadReq_accesses::.switch_cpus.data     12062235                       # number of ReadReq accesses(hits+misses)
system.cpu.dcache.ReadReq_accesses::total     12062240                       # number of ReadReq accesses(hits+misses)
system.cpu.dcache.ReadReq_miss_rate::.cpu.data     0.400000                       # miss rate for ReadReq accesses
system.cpu.dcache.ReadReq_miss_rate::.switch_cpus.data     0.246493                       # miss rate for ReadReq accesses
system.cpu.dcache.ReadReq_miss_rate::total     0.246493                       # miss rate for ReadReq accesses
system.cpu.dcache.ReadReq_avg_miss_latency::.switch_cpus.data 64166.907424                       # average ReadReq miss latency
system.cpu.dcache.ReadReq_avg_miss_latency::total 64166.864261                       # average ReadReq miss latency
system.cpu.dcache.ReadReq_mshr_hits::.switch_cpus.data      2265385                       # number of ReadReq MSHR hits
system.cpu.dcache.ReadReq_mshr_hits::total      2265385                       # number of ReadReq MSHR hits
system.cpu.dcache.ReadReq_mshr_misses::.switch_cpus.data       707871                       # number of ReadReq MSHR misses
system.cpu.dcache.ReadReq_mshr_misses::total       707871                       # number of ReadReq MSHR misses
system.cpu.dcache.ReadReq_mshr_miss_latency::.switch_cpus.data  51093105500                       # number of ReadReq MSHR miss cycles
system.cpu.dcache.ReadReq_mshr_miss_latency::total  51093105500                       # number of ReadReq MSHR miss cycles
system.cpu.dcache.ReadReq_mshr_miss_rate::.switch_cpus.data     0.058685                       # mshr miss rate for ReadReq accesses
system.cpu.dcache.ReadReq_mshr_miss_rate::total     0.058685                       # mshr miss rate for ReadReq accesses
system.cpu.dcache.ReadReq_avg_mshr_miss_latency::.switch_cpus.data 72178.554426                       # average ReadReq mshr miss latency
system.cpu.dcache.ReadReq_avg_mshr_miss_latency::total 72178.554426                       # average ReadReq mshr miss latency
system.cpu.dcache.WriteReq_hits::.switch_cpus.data      1203034                       # number of WriteReq hits
system.cpu.dcache.WriteReq_hits::total        1203034                       # number of WriteReq hits
system.cpu.dcache.WriteReq_misses::.cpu.data            1                       # number of WriteReq misses
system.cpu.dcache.WriteReq_misses::.switch_cpus.data        46559                       # number of WriteReq misses
system.cpu.dcache.WriteReq_misses::total        46560                       # number of WriteReq misses
system.cpu.dcache.WriteReq_miss_latency::.switch_cpus.data   3543576336                       # number of WriteReq miss cycles
system.cpu.dcache.WriteReq_miss_latency::total   3543576336                       # number of WriteReq miss cycles
system.cpu.dcache.WriteReq_accesses::.cpu.data            1                       # number of WriteReq accesses(hits+misses)
system.cpu.dcache.WriteReq_accesses::.switch_cpus.data      1249593                       # number of WriteReq accesses(hits+misses)
system.cpu.dcache.WriteReq_accesses::total      1249594                       # number of WriteReq accesses(hits+misses)
system.cpu.dcache.WriteReq_miss_rate::.cpu.data            1                       # miss rate for WriteReq accesses
system.cpu.dcache.WriteReq_miss_rate::.switch_cpus.data     0.037259                       # miss rate for WriteReq accesses
system.cpu.dcache.WriteReq_miss_rate::total     0.037260                       # miss rate for WriteReq accesses
system.cpu.dcache.WriteReq_avg_miss_latency::.switch_cpus.data 76109.373827                       # average WriteReq miss latency
system.cpu.dcache.WriteReq_avg_miss_latency::total 76107.739175                       # average WriteReq miss latency
system.cpu.dcache.WriteReq_mshr_hits::.switch_cpus.data          241                       # number of WriteReq MSHR hits
system.cpu.dcache.WriteReq_mshr_hits::total          241                       # number of WriteReq MSHR hits
system.cpu.dcache.WriteReq_mshr_misses::.switch_cpus.data        46318                       # number of WriteReq MSHR misses
system.cpu.dcache.WriteReq_mshr_misses::total        46318                       # number of WriteReq MSHR misses
system.cpu.dcache.WriteReq_mshr_miss_latency::.switch_cpus.data   3486453840                       # number of WriteReq MSHR miss cycles
system.cpu.dcache.WriteReq_mshr_miss_latency::total   3486453840                       # number of WriteReq MSHR miss cycles
system.cpu.dcache.WriteReq_mshr_miss_rate::.switch_cpus.data     0.037066                       # mshr miss rate for WriteReq accesses
system.cpu.dcache.WriteReq_mshr_miss_rate::total     0.037066                       # mshr miss rate for WriteReq accesses
system.cpu.dcache.WriteReq_avg_mshr_miss_latency::.switch_cpus.data 75272.115376                       # average WriteReq mshr miss latency
system.cpu.dcache.WriteReq_avg_mshr_miss_latency::total 75272.115376                       # average WriteReq mshr miss latency
system.cpu.dcache.SoftPFReq_hits::.switch_cpus.data        16121                       # number of SoftPFReq hits
system.cpu.dcache.SoftPFReq_hits::total         16121                       # number of SoftPFReq hits
system.cpu.dcache.SoftPFReq_misses::.switch_cpus.data          300                       # number of SoftPFReq misses
system.cpu.dcache.SoftPFReq_misses::total          300                       # number of SoftPFReq misses
system.cpu.dcache.SoftPFReq_accesses::.switch_cpus.data        16421                       # number of SoftPFReq accesses(hits+misses)
system.cpu.dcache.SoftPFReq_accesses::total        16421                       # number of SoftPFReq accesses(hits+misses)
system.cpu.dcache.SoftPFReq_miss_rate::.switch_cpus.data     0.018269                       # miss rate for SoftPFReq accesses
system.cpu.dcache.SoftPFReq_miss_rate::total     0.018269                       # miss rate for SoftPFReq accesses
system.cpu.dcache.SoftPFReq_mshr_misses::.switch_cpus.data          160                       # number of SoftPFReq MSHR misses
system.cpu.dcache.SoftPFReq_mshr_misses::total          160                       # number of SoftPFReq MSHR misses
system.cpu.dcache.SoftPFReq_mshr_miss_latency::.switch_cpus.data      8193500                       # number of SoftPFReq MSHR miss cycles
system.cpu.dcache.SoftPFReq_mshr_miss_latency::total      8193500                       # number of SoftPFReq MSHR miss cycles
system.cpu.dcache.SoftPFReq_mshr_miss_rate::.switch_cpus.data     0.009744                       # mshr miss rate for SoftPFReq accesses
system.cpu.dcache.SoftPFReq_mshr_miss_rate::total     0.009744                       # mshr miss rate for SoftPFReq accesses
system.cpu.dcache.SoftPFReq_avg_mshr_miss_latency::.switch_cpus.data 51209.375000                       # average SoftPFReq mshr miss latency
system.cpu.dcache.SoftPFReq_avg_mshr_miss_latency::total 51209.375000                       # average SoftPFReq mshr miss latency
system.cpu.dcache.tags.pwrStateResidencyTicks::UNDEFINED 270802460398000                       # Cumulative time (in ticks) in various power states
system.cpu.dcache.tags.tagsinuse             0.132908                       # Cycle average of tags in use
system.cpu.dcache.tags.total_refs            11062488                       # Total number of references to valid blocks.
system.cpu.dcache.tags.sampled_refs            754351                       # Sample count of references to valid blocks.
system.cpu.dcache.tags.avg_refs             14.664908                       # Average number of references to valid blocks.
system.cpu.dcache.tags.warmup_cycle      270767280054500                       # Cycle when the warmup percentage was hit.
system.cpu.dcache.tags.occ_blocks::.cpu.data     0.000002                       # Average occupied blocks per requestor
system.cpu.dcache.tags.occ_blocks::.switch_cpus.data     0.132906                       # Average occupied blocks per requestor
system.cpu.dcache.tags.occ_percent::.cpu.data     0.000000                       # Average percentage of cache occupancy
system.cpu.dcache.tags.occ_percent::.switch_cpus.data     0.000130                       # Average percentage of cache occupancy
system.cpu.dcache.tags.occ_percent::total     0.000130                       # Average percentage of cache occupancy
system.cpu.dcache.tags.occ_task_id_blocks::1024         1024                       # Occupied blocks per task id
system.cpu.dcache.tags.age_task_id_blocks_1024::0          203                       # Occupied blocks per task id
system.cpu.dcache.tags.age_task_id_blocks_1024::1          818                       # Occupied blocks per task id
system.cpu.dcache.tags.age_task_id_blocks_1024::3            3                       # Occupied blocks per task id
system.cpu.dcache.tags.occ_task_id_percent::1024            1                       # Percentage of cache occupancy per task id
system.cpu.dcache.tags.tag_accesses          27410861                       # Number of tag accesses
system.cpu.dcache.tags.data_accesses         27410861                       # Number of data accesses

---------- End Simulation Statistics   ----------
