
---------- Begin Simulation Statistics ----------
final_tick                               258567146276500                       # Number of ticks from beginning of simulation (restored from checkpoints and never reset)
host_inst_rate                                  19891                       # Simulator instruction rate (inst/s)
host_mem_usage                                 866796                       # Number of bytes of host memory used
host_op_rate                                    36306                       # Simulator op (including micro ops) rate (op/s)
host_seconds                                   502.75                       # Real time elapsed on the host
host_tick_rate                              207549396                       # Simulator tick rate (ticks/s)
sim_freq                                 1000000000000                       # Frequency of simulated ticks
sim_insts                                    10000009                       # Number of instructions simulated
sim_ops                                      18252470                       # Number of ops (including micro ops) simulated
sim_seconds                                  0.104345                       # Number of seconds simulated
sim_ticks                                104344731500                       # Number of ticks simulated
system.cpu.Branches                                 2                       # Number of branches fetched
system.cpu.committedInsts                           9                       # Number of instructions committed
system.cpu.committedOps                            16                       # Number of ops (including micro ops) committed
system.cpu.dtb.rdAccesses                           5                       # TLB accesses on read requests
system.cpu.dtb.rdMisses                             0                       # TLB misses on read requests
system.cpu.dtb.wrAccesses                           0                       # TLB accesses on write requests
system.cpu.dtb.wrMisses                             0                       # TLB misses on write requests
system.cpu.idle_fraction                            0                       # Percentage of idle cycles
system.cpu.itb.rdAccesses                           0                       # TLB accesses on read requests
system.cpu.itb.rdMisses                             0                       # TLB misses on read requests
system.cpu.itb.wrAccesses                          13                       # TLB accesses on write requests
system.cpu.itb.wrMisses                             0                       # TLB misses on write requests
system.cpu.not_idle_fraction                        1                       # Percentage of non-idle cycles
system.cpu.numCycles                               20                       # number of cpu cycles simulated
system.cpu.numWorkItemsCompleted                    0                       # number of work items this cpu completed
system.cpu.numWorkItemsStarted                      0                       # number of work items this cpu started
system.cpu.num_busy_cycles                         20                       # Number of busy cycles
system.cpu.num_cc_register_reads                   11                       # number of times the CC registers were read
system.cpu.num_cc_register_writes                   8                       # number of times the CC registers were written
system.cpu.num_conditional_control_insts            2                       # number of instructions that are conditional controls
system.cpu.num_fp_alu_accesses                      0                       # Number of float alu accesses
system.cpu.num_fp_insts                             0                       # number of float instructions
system.cpu.num_fp_register_reads                    0                       # number of times the floating registers were read
system.cpu.num_fp_register_writes                   0                       # number of times the floating registers were written
system.cpu.num_func_calls                           0                       # number of times a function call or return occured
system.cpu.num_idle_cycles                          0                       # Number of idle cycles
system.cpu.num_int_alu_accesses                    16                       # Number of integer alu accesses
system.cpu.num_int_insts                           16                       # number of integer instructions
system.cpu.num_int_register_reads                  32                       # number of times the integer registers were read
system.cpu.num_int_register_writes                 14                       # number of times the integer registers were written
system.cpu.num_load_insts                           5                       # Number of load instructions
system.cpu.num_mem_refs                             5                       # number of memory refs
system.cpu.num_store_insts                          0                       # Number of store instructions
system.cpu.num_vec_alu_accesses                     0                       # Number of vector alu accesses
system.cpu.num_vec_insts                            0                       # number of vector instructions
system.cpu.num_vec_register_reads                   0                       # number of times the vector registers were read
system.cpu.num_vec_register_writes                  0                       # number of times the vector registers were written
system.cpu.op_class::No_OpClass                     0      0.00%      0.00% # Class of executed instruction
system.cpu.op_class::IntAlu                        11     68.75%     68.75% # Class of executed instruction
system.cpu.op_class::IntMult                        0      0.00%     68.75% # Class of executed instruction
system.cpu.op_class::IntDiv                         0      0.00%     68.75% # Class of executed instruction
system.cpu.op_class::FloatAdd                       0      0.00%     68.75% # Class of executed instruction
system.cpu.op_class::FloatCmp                       0      0.00%     68.75% # Class of executed instruction
system.cpu.op_class::FloatCvt                       0      0.00%     68.75% # Class of executed instruction
system.cpu.op_class::FloatMult                      0      0.00%     68.75% # Class of executed instruction
system.cpu.op_class::FloatMultAcc                   0      0.00%     68.75% # Class of executed instruction
system.cpu.op_class::FloatDiv                       0      0.00%     68.75% # Class of executed instruction
system.cpu.op_class::FloatMisc                      0      0.00%     68.75% # Class of executed instruction
system.cpu.op_class::FloatSqrt                      0      0.00%     68.75% # Class of executed instruction
system.cpu.op_class::SimdAdd                        0      0.00%     68.75% # Class of executed instruction
system.cpu.op_class::SimdAddAcc                     0      0.00%     68.75% # Class of executed instruction
system.cpu.op_class::SimdAlu                        0      0.00%     68.75% # Class of executed instruction
system.cpu.op_class::SimdCmp                        0      0.00%     68.75% # Class of executed instruction
system.cpu.op_class::SimdCvt                        0      0.00%     68.75% # Class of executed instruction
system.cpu.op_class::SimdMisc                       0      0.00%     68.75% # Class of executed instruction
system.cpu.op_class::SimdMult                       0      0.00%     68.75% # Class of executed instruction
system.cpu.op_class::SimdMultAcc                    0      0.00%     68.75% # Class of executed instruction
system.cpu.op_class::SimdShift                      0      0.00%     68.75% # Class of executed instruction
system.cpu.op_class::SimdShiftAcc                   0      0.00%     68.75% # Class of executed instruction
system.cpu.op_class::SimdDiv                        0      0.00%     68.75% # Class of executed instruction
system.cpu.op_class::SimdSqrt                       0      0.00%     68.75% # Class of executed instruction
system.cpu.op_class::SimdFloatAdd                   0      0.00%     68.75% # Class of executed instruction
system.cpu.op_class::SimdFloatAlu                   0      0.00%     68.75% # Class of executed instruction
system.cpu.op_class::SimdFloatCmp                   0      0.00%     68.75% # Class of executed instruction
system.cpu.op_class::SimdFloatCvt                   0      0.00%     68.75% # Class of executed instruction
system.cpu.op_class::SimdFloatDiv                   0      0.00%     68.75% # Class of executed instruction
system.cpu.op_class::SimdFloatMisc                  0      0.00%     68.75% # Class of executed instruction
system.cpu.op_class::SimdFloatMult                  0      0.00%     68.75% # Class of executed instruction
system.cpu.op_class::SimdFloatMultAcc               0      0.00%     68.75% # Class of executed instruction
system.cpu.op_class::SimdFloatSqrt                  0      0.00%     68.75% # Class of executed instruction
system.cpu.op_class::SimdReduceAdd                  0      0.00%     68.75% # Class of executed instruction
system.cpu.op_class::SimdReduceAlu                  0      0.00%     68.75% # Class of executed instruction
system.cpu.op_class::SimdReduceCmp                  0      0.00%     68.75% # Class of executed instruction
system.cpu.op_class::SimdFloatReduceAdd             0      0.00%     68.75% # Class of executed instruction
system.cpu.op_class::SimdFloatReduceCmp             0      0.00%     68.75% # Class of executed instruction
system.cpu.op_class::SimdAes                        0      0.00%     68.75% # Class of executed instruction
system.cpu.op_class::SimdAesMix                     0      0.00%     68.75% # Class of executed instruction
system.cpu.op_class::SimdSha1Hash                   0      0.00%     68.75% # Class of executed instruction
system.cpu.op_class::SimdSha1Hash2                  0      0.00%     68.75% # Class of executed instruction
system.cpu.op_class::SimdSha256Hash                 0      0.00%     68.75% # Class of executed instruction
system.cpu.op_class::SimdSha256Hash2                0      0.00%     68.75% # Class of executed instruction
system.cpu.op_class::SimdShaSigma2                  0      0.00%     68.75% # Class of executed instruction
system.cpu.op_class::SimdShaSigma3                  0      0.00%     68.75% # Class of executed instruction
system.cpu.op_class::SimdPredAlu                    0      0.00%     68.75% # Class of executed instruction
system.cpu.op_class::MemRead                        5     31.25%    100.00% # Class of executed instruction
system.cpu.op_class::MemWrite                       0      0.00%    100.00% # Class of executed instruction
system.cpu.op_class::FloatMemRead                   0      0.00%    100.00% # Class of executed instruction
system.cpu.op_class::FloatMemWrite                  0      0.00%    100.00% # Class of executed instruction
system.cpu.op_class::IprAccess                      0      0.00%    100.00% # Class of executed instruction
system.cpu.op_class::InstPrefetch                   0      0.00%    100.00% # Class of executed instruction
system.cpu.op_class::total                         16                       # Class of executed instruction
system.cpu.workload.numSyscalls                     0                       # Number of system calls
system.membus.snoop_filter.hit_multi_requests            0                       # Number of requests hitting in the snoop filter with multiple (>1) holders of the requested data.
system.membus.snoop_filter.hit_multi_snoops            0                       # Number of snoops hitting in the snoop filter with multiple (>1) holders of the requested data.
system.membus.snoop_filter.hit_single_requests      2734029                       # Number of requests hitting in the snoop filter with a single holder of the requested data.
system.membus.snoop_filter.hit_single_snoops            0                       # Number of snoops hitting in the snoop filter with a single holder of the requested data.
system.membus.snoop_filter.tot_requests       5472308                       # Total number of requests made to the snoop filter.
system.membus.snoop_filter.tot_snoops               0                       # Total number of snoops made to the snoop filter.
system.switch_cpus.branchPred.BTBCorrect            0                       # Number of correct BTB predictions (this stat may not work properly.
system.switch_cpus.branchPred.BTBHitPct      0.000000                       # BTB Hit Percentage
system.switch_cpus.branchPred.BTBHits               0                       # Number of BTB hits
system.switch_cpus.branchPred.BTBLookups       941342                       # Number of BTB lookups
system.switch_cpus.branchPred.RASInCorrect            0                       # Number of incorrect RAS predictions.
system.switch_cpus.branchPred.condIncorrect         9786                       # Number of conditional branches incorrect
system.switch_cpus.branchPred.condPredicted      2675493                       # Number of conditional branches predicted
system.switch_cpus.branchPred.indirectHits       936095                       # Number of indirect target hits.
system.switch_cpus.branchPred.indirectLookups       941342                       # Number of indirect predictor lookups.
system.switch_cpus.branchPred.indirectMisses         5247                       # Number of indirect misses.
system.switch_cpus.branchPred.lookups         2675512                       # Number of BP lookups
system.switch_cpus.branchPred.usedRAS               1                       # Number of times the RAS was used to get a target.
system.switch_cpus.branchPredindirectMispredicted          237                       # Number of mispredicted indirect branches.
system.switch_cpus.cc_regfile_reads          13396161                       # number of cc regfile reads
system.switch_cpus.cc_regfile_writes          8264155                       # number of cc regfile writes
system.switch_cpus.commit.amos                      0                       # Number of atomic instructions committed
system.switch_cpus.commit.branchMispredicts         9789                       # The number of times a branch was mispredicted
system.switch_cpus.commit.branches            2499612                       # Number of branches committed
system.switch_cpus.commit.bw_lim_events         75876                       # number cycles where commit BW limit reached
system.switch_cpus.commit.commitSquashedInsts       885618                       # The number of squashed insts skipped by commit
system.switch_cpus.commit.committedInsts     10000000                       # Number of instructions committed
system.switch_cpus.commit.committedOps       18252454                       # Number of ops (including micro ops) committed
system.switch_cpus.commit.committed_per_cycle::samples    208572592                       # Number of insts commited each cycle
system.switch_cpus.commit.committed_per_cycle::mean     0.087511                       # Number of insts commited each cycle
system.switch_cpus.commit.committed_per_cycle::stdev     0.494996                       # Number of insts commited each cycle
system.switch_cpus.commit.committed_per_cycle::underflows            0      0.00%      0.00% # Number of insts commited each cycle
system.switch_cpus.commit.committed_per_cycle::0    199369658     95.59%     95.59% # Number of insts commited each cycle
system.switch_cpus.commit.committed_per_cycle::1      4699988      2.25%     97.84% # Number of insts commited each cycle
system.switch_cpus.commit.committed_per_cycle::2      2011217      0.96%     98.81% # Number of insts commited each cycle
system.switch_cpus.commit.committed_per_cycle::3      1301286      0.62%     99.43% # Number of insts commited each cycle
system.switch_cpus.commit.committed_per_cycle::4       806224      0.39%     99.82% # Number of insts commited each cycle
system.switch_cpus.commit.committed_per_cycle::5        57419      0.03%     99.84% # Number of insts commited each cycle
system.switch_cpus.commit.committed_per_cycle::6       249293      0.12%     99.96% # Number of insts commited each cycle
system.switch_cpus.commit.committed_per_cycle::7         1631      0.00%     99.96% # Number of insts commited each cycle
system.switch_cpus.commit.committed_per_cycle::8        75876      0.04%    100.00% # Number of insts commited each cycle
system.switch_cpus.commit.committed_per_cycle::overflows            0      0.00%    100.00% # Number of insts commited each cycle
system.switch_cpus.commit.committed_per_cycle::min_value            0                       # Number of insts commited each cycle
system.switch_cpus.commit.committed_per_cycle::max_value            8                       # Number of insts commited each cycle
system.switch_cpus.commit.committed_per_cycle::total    208572592                       # Number of insts commited each cycle
system.switch_cpus.commit.fp_insts                  0                       # Number of committed floating point instructions.
system.switch_cpus.commit.function_calls            0                       # Number of function calls committed.
system.switch_cpus.commit.int_insts          18252232                       # Number of committed integer instructions.
system.switch_cpus.commit.loads               5000554                       # Number of loads committed
system.switch_cpus.commit.membars                   0                       # Number of memory barriers committed
system.switch_cpus.commit.op_class_0::No_OpClass            0      0.00%      0.00% # Class of committed instruction
system.switch_cpus.commit.op_class_0::IntAlu     13251456     72.60%     72.60% # Class of committed instruction
system.switch_cpus.commit.op_class_0::IntMult            0      0.00%     72.60% # Class of committed instruction
system.switch_cpus.commit.op_class_0::IntDiv            0      0.00%     72.60% # Class of committed instruction
system.switch_cpus.commit.op_class_0::FloatAdd            0      0.00%     72.60% # Class of committed instruction
system.switch_cpus.commit.op_class_0::FloatCmp            0      0.00%     72.60% # Class of committed instruction
system.switch_cpus.commit.op_class_0::FloatCvt            0      0.00%     72.60% # Class of committed instruction
system.switch_cpus.commit.op_class_0::FloatMult            0      0.00%     72.60% # Class of committed instruction
system.switch_cpus.commit.op_class_0::FloatMultAcc            0      0.00%     72.60% # Class of committed instruction
system.switch_cpus.commit.op_class_0::FloatDiv            0      0.00%     72.60% # Class of committed instruction
system.switch_cpus.commit.op_class_0::FloatMisc            0      0.00%     72.60% # Class of committed instruction
system.switch_cpus.commit.op_class_0::FloatSqrt            0      0.00%     72.60% # Class of committed instruction
system.switch_cpus.commit.op_class_0::SimdAdd            0      0.00%     72.60% # Class of committed instruction
system.switch_cpus.commit.op_class_0::SimdAddAcc            0      0.00%     72.60% # Class of committed instruction
system.switch_cpus.commit.op_class_0::SimdAlu            0      0.00%     72.60% # Class of committed instruction
system.switch_cpus.commit.op_class_0::SimdCmp            0      0.00%     72.60% # Class of committed instruction
system.switch_cpus.commit.op_class_0::SimdCvt            0      0.00%     72.60% # Class of committed instruction
system.switch_cpus.commit.op_class_0::SimdMisc            0      0.00%     72.60% # Class of committed instruction
system.switch_cpus.commit.op_class_0::SimdMult            0      0.00%     72.60% # Class of committed instruction
system.switch_cpus.commit.op_class_0::SimdMultAcc            0      0.00%     72.60% # Class of committed instruction
system.switch_cpus.commit.op_class_0::SimdShift            0      0.00%     72.60% # Class of committed instruction
system.switch_cpus.commit.op_class_0::SimdShiftAcc            0      0.00%     72.60% # Class of committed instruction
system.switch_cpus.commit.op_class_0::SimdDiv            0      0.00%     72.60% # Class of committed instruction
system.switch_cpus.commit.op_class_0::SimdSqrt            0      0.00%     72.60% # Class of committed instruction
system.switch_cpus.commit.op_class_0::SimdFloatAdd            0      0.00%     72.60% # Class of committed instruction
system.switch_cpus.commit.op_class_0::SimdFloatAlu            0      0.00%     72.60% # Class of committed instruction
system.switch_cpus.commit.op_class_0::SimdFloatCmp            0      0.00%     72.60% # Class of committed instruction
system.switch_cpus.commit.op_class_0::SimdFloatCvt            0      0.00%     72.60% # Class of committed instruction
system.switch_cpus.commit.op_class_0::SimdFloatDiv            0      0.00%     72.60% # Class of committed instruction
system.switch_cpus.commit.op_class_0::SimdFloatMisc            0      0.00%     72.60% # Class of committed instruction
system.switch_cpus.commit.op_class_0::SimdFloatMult            0      0.00%     72.60% # Class of committed instruction
system.switch_cpus.commit.op_class_0::SimdFloatMultAcc            0      0.00%     72.60% # Class of committed instruction
system.switch_cpus.commit.op_class_0::SimdFloatSqrt            0      0.00%     72.60% # Class of committed instruction
system.switch_cpus.commit.op_class_0::SimdReduceAdd            0      0.00%     72.60% # Class of committed instruction
system.switch_cpus.commit.op_class_0::SimdReduceAlu            0      0.00%     72.60% # Class of committed instruction
system.switch_cpus.commit.op_class_0::SimdReduceCmp            0      0.00%     72.60% # Class of committed instruction
system.switch_cpus.commit.op_class_0::SimdFloatReduceAdd            0      0.00%     72.60% # Class of committed instruction
system.switch_cpus.commit.op_class_0::SimdFloatReduceCmp            0      0.00%     72.60% # Class of committed instruction
system.switch_cpus.commit.op_class_0::SimdAes            0      0.00%     72.60% # Class of committed instruction
system.switch_cpus.commit.op_class_0::SimdAesMix            0      0.00%     72.60% # Class of committed instruction
system.switch_cpus.commit.op_class_0::SimdSha1Hash            0      0.00%     72.60% # Class of committed instruction
system.switch_cpus.commit.op_class_0::SimdSha1Hash2            0      0.00%     72.60% # Class of committed instruction
system.switch_cpus.commit.op_class_0::SimdSha256Hash            0      0.00%     72.60% # Class of committed instruction
system.switch_cpus.commit.op_class_0::SimdSha256Hash2            0      0.00%     72.60% # Class of committed instruction
system.switch_cpus.commit.op_class_0::SimdShaSigma2            0      0.00%     72.60% # Class of committed instruction
system.switch_cpus.commit.op_class_0::SimdShaSigma3            0      0.00%     72.60% # Class of committed instruction
system.switch_cpus.commit.op_class_0::SimdPredAlu            0      0.00%     72.60% # Class of committed instruction
system.switch_cpus.commit.op_class_0::MemRead      5000554     27.40%    100.00% # Class of committed instruction
system.switch_cpus.commit.op_class_0::MemWrite          444      0.00%    100.00% # Class of committed instruction
system.switch_cpus.commit.op_class_0::FloatMemRead            0      0.00%    100.00% # Class of committed instruction
system.switch_cpus.commit.op_class_0::FloatMemWrite            0      0.00%    100.00% # Class of committed instruction
system.switch_cpus.commit.op_class_0::IprAccess            0      0.00%    100.00% # Class of committed instruction
system.switch_cpus.commit.op_class_0::InstPrefetch            0      0.00%    100.00% # Class of committed instruction
system.switch_cpus.commit.op_class_0::total     18252454                       # Class of committed instruction
system.switch_cpus.commit.refs                5000998                       # Number of memory references committed
system.switch_cpus.commit.swp_count                 0                       # Number of s/w prefetches committed
system.switch_cpus.commit.vec_insts                 0                       # Number of committed Vector instructions.
system.switch_cpus.committedInsts            10000000                       # Number of Instructions Simulated
system.switch_cpus.committedOps              18252454                       # Number of Ops (including micro ops) Simulated
system.switch_cpus.cpi                      20.868944                       # CPI: Cycles Per Instruction
system.switch_cpus.cpi_total                20.868944                       # CPI: Total CPI of All Threads
system.switch_cpus.decode.BlockedCycles     205487097                       # Number of cycles decode is blocked
system.switch_cpus.decode.DecodedInsts       19214501                       # Number of instructions handled by decode
system.switch_cpus.decode.IdleCycles           781753                       # Number of cycles decode is idle
system.switch_cpus.decode.RunCycles            114014                       # Number of cycles decode is running
system.switch_cpus.decode.SquashCycles           9795                       # Number of cycles decode is squashing
system.switch_cpus.decode.UnblockCycles       2295673                       # Number of cycles decode is unblocking
system.switch_cpus.dtb.rdAccesses             5053129                       # TLB accesses on read requests
system.switch_cpus.dtb.rdMisses                 64064                       # TLB misses on read requests
system.switch_cpus.dtb.wrAccesses                3003                       # TLB accesses on write requests
system.switch_cpus.dtb.wrMisses                   223                       # TLB misses on write requests
system.switch_cpus.fetch.Branches             2675512                       # Number of branches that fetch encountered
system.switch_cpus.fetch.CacheLines           1601001                       # Number of cache lines fetched
system.switch_cpus.fetch.Cycles             207073728                       # Number of cycles fetch has run and was not squashing or blocked
system.switch_cpus.fetch.IcacheSquashes           392                       # Number of outstanding Icache misses that were squashed
system.switch_cpus.fetch.Insts               10735115                       # Number of instructions fetch has processed
system.switch_cpus.fetch.MiscStallCycles            3                       # Number of cycles fetch has spent waiting on interrupts, or bad addresses, or out of MSHRs
system.switch_cpus.fetch.PendingTrapStallCycles           24                       # Number of stall cycles due to pending traps
system.switch_cpus.fetch.SquashCycles           19590                       # Number of cycles fetch has spent squashing
system.switch_cpus.fetch.branchRate          0.012821                       # Number of branch fetches per cycle
system.switch_cpus.fetch.icacheStallCycles      1604790                       # Number of cycles fetch is stalled on an Icache miss
system.switch_cpus.fetch.predictedBranches       936096                       # Number of branches that fetch has predicted taken
system.switch_cpus.fetch.rate                0.051441                       # Number of inst fetches per cycle
system.switch_cpus.fetch.rateDist::samples    208688340                       # Number of instructions fetched each cycle (Total)
system.switch_cpus.fetch.rateDist::mean      0.093749                       # Number of instructions fetched each cycle (Total)
system.switch_cpus.fetch.rateDist::stdev     0.769313                       # Number of instructions fetched each cycle (Total)
system.switch_cpus.fetch.rateDist::underflows            0      0.00%      0.00% # Number of instructions fetched each cycle (Total)
system.switch_cpus.fetch.rateDist::0        205065465     98.26%     98.26% # Number of instructions fetched each cycle (Total)
system.switch_cpus.fetch.rateDist::1            41533      0.02%     98.28% # Number of instructions fetched each cycle (Total)
system.switch_cpus.fetch.rateDist::2           733611      0.35%     98.64% # Number of instructions fetched each cycle (Total)
system.switch_cpus.fetch.rateDist::3            41189      0.02%     98.66% # Number of instructions fetched each cycle (Total)
system.switch_cpus.fetch.rateDist::4           696999      0.33%     98.99% # Number of instructions fetched each cycle (Total)
system.switch_cpus.fetch.rateDist::5            41157      0.02%     99.01% # Number of instructions fetched each cycle (Total)
system.switch_cpus.fetch.rateDist::6           785943      0.38%     99.39% # Number of instructions fetched each cycle (Total)
system.switch_cpus.fetch.rateDist::7            36883      0.02%     99.40% # Number of instructions fetched each cycle (Total)
system.switch_cpus.fetch.rateDist::8          1245560      0.60%    100.00% # Number of instructions fetched each cycle (Total)
system.switch_cpus.fetch.rateDist::overflows            0      0.00%    100.00% # Number of instructions fetched each cycle (Total)
system.switch_cpus.fetch.rateDist::min_value            0                       # Number of instructions fetched each cycle (Total)
system.switch_cpus.fetch.rateDist::max_value            8                       # Number of instructions fetched each cycle (Total)
system.switch_cpus.fetch.rateDist::total    208688340                       # Number of instructions fetched each cycle (Total)
system.switch_cpus.fp_regfile_writes               56                       # number of floating regfile writes
system.switch_cpus.idleCycles                    1103                       # Total number of cycles that the CPU has spent unscheduled due to idling
system.switch_cpus.iew.branchMispredicts         9810                       # Number of branch mispredicts detected at execute
system.switch_cpus.iew.exec_branches          2503443                       # Number of branches executed
system.switch_cpus.iew.exec_nop                     0                       # number of nop insts executed
system.switch_cpus.iew.exec_rate             0.089267                       # Inst execution rate
system.switch_cpus.iew.exec_refs              5098166                       # number of memory reference insts executed
system.switch_cpus.iew.exec_stores               3003                       # Number of stores executed
system.switch_cpus.iew.exec_swp                     0                       # number of swp insts executed
system.switch_cpus.iew.iewBlockCycles       167901518                       # Number of cycles IEW is blocking
system.switch_cpus.iew.iewDispLoadInsts       5241243                       # Number of dispatched load instructions
system.switch_cpus.iew.iewDispNonSpecInsts            0                       # Number of dispatched non-speculative instructions
system.switch_cpus.iew.iewDispSquashedInsts           55                       # Number of squashed instructions skipped by dispatch
system.switch_cpus.iew.iewDispStoreInsts         5812                       # Number of dispatched store instructions
system.switch_cpus.iew.iewDispatchedInsts     19138134                       # Number of instructions dispatched to IQ
system.switch_cpus.iew.iewExecLoadInsts       5095163                       # Number of load instructions executed
system.switch_cpus.iew.iewExecSquashedInsts         8759                       # Number of squashed instructions skipped in execute
system.switch_cpus.iew.iewExecutedInsts      18629002                       # Number of executed instructions
system.switch_cpus.iew.iewIQFullEvents         423165                       # Number of times the IQ has become full, causing a stall
system.switch_cpus.iew.iewIdleCycles                0                       # Number of cycles IEW is idle
system.switch_cpus.iew.iewLSQFullEvents          2766                       # Number of times the LSQ has become full, causing a stall
system.switch_cpus.iew.iewSquashCycles           9795                       # Number of cycles IEW is squashing
system.switch_cpus.iew.iewUnblockCycles       1831077                       # Number of cycles IEW is unblocking
system.switch_cpus.iew.lsq.thread0.blockedLoads            0                       # Number of blocked loads due to partial load-store forwarding
system.switch_cpus.iew.lsq.thread0.cacheBlocked        40511                       # Number of times an access to memory failed due to the cache being blocked
system.switch_cpus.iew.lsq.thread0.forwLoads          603                       # Number of loads that had data forwarded from stores
system.switch_cpus.iew.lsq.thread0.ignoredResponses            0                       # Number of memory responses ignored because the instruction is squashed
system.switch_cpus.iew.lsq.thread0.invAddrLoads            0                       # Number of loads ignored due to an invalid address
system.switch_cpus.iew.lsq.thread0.invAddrSwpfs            0                       # Number of software prefetches ignored due to an invalid address
system.switch_cpus.iew.lsq.thread0.memOrderViolation           48                       # Number of memory ordering violations
system.switch_cpus.iew.lsq.thread0.rescheduledLoads            0                       # Number of loads that were rescheduled
system.switch_cpus.iew.lsq.thread0.squashedLoads       240663                       # Number of loads squashed
system.switch_cpus.iew.lsq.thread0.squashedStores         5368                       # Number of stores squashed
system.switch_cpus.iew.memOrderViolationEvents           48                       # Number of memory order violations
system.switch_cpus.iew.predictedNotTakenIncorrect         6881                       # Number of branches that were predicted not taken incorrectly
system.switch_cpus.iew.predictedTakenIncorrect         2929                       # Number of branches that were predicted taken incorrectly
system.switch_cpus.iew.wb_consumers          19881214                       # num instructions consuming a value
system.switch_cpus.iew.wb_count              18568733                       # cumulative count of insts written-back
system.switch_cpus.iew.wb_fanout             0.616262                       # average fanout of values written-back
system.switch_cpus.iew.wb_producers          12252040                       # num instructions producing a value
system.switch_cpus.iew.wb_rate               0.088978                       # insts written-back per cycle
system.switch_cpus.iew.wb_sent               18569192                       # cumulative count of insts sent to commit
system.switch_cpus.int_regfile_reads         24351249                       # number of integer regfile reads
system.switch_cpus.int_regfile_writes        16062030                       # number of integer regfile writes
system.switch_cpus.ipc                       0.047918                       # IPC: Instructions Per Cycle
system.switch_cpus.ipc_total                 0.047918                       # IPC: Total IPC of All Threads
system.switch_cpus.iq.FU_type_0::No_OpClass          137      0.00%      0.00% # Type of FU issued
system.switch_cpus.iq.FU_type_0::IntAlu      13539024     72.64%     72.64% # Type of FU issued
system.switch_cpus.iq.FU_type_0::IntMult            4      0.00%     72.64% # Type of FU issued
system.switch_cpus.iq.FU_type_0::IntDiv             0      0.00%     72.64% # Type of FU issued
system.switch_cpus.iq.FU_type_0::FloatAdd            0      0.00%     72.64% # Type of FU issued
system.switch_cpus.iq.FU_type_0::FloatCmp            0      0.00%     72.64% # Type of FU issued
system.switch_cpus.iq.FU_type_0::FloatCvt            0      0.00%     72.64% # Type of FU issued
system.switch_cpus.iq.FU_type_0::FloatMult            0      0.00%     72.64% # Type of FU issued
system.switch_cpus.iq.FU_type_0::FloatMultAcc            0      0.00%     72.64% # Type of FU issued
system.switch_cpus.iq.FU_type_0::FloatDiv            0      0.00%     72.64% # Type of FU issued
system.switch_cpus.iq.FU_type_0::FloatMisc            0      0.00%     72.64% # Type of FU issued
system.switch_cpus.iq.FU_type_0::FloatSqrt            0      0.00%     72.64% # Type of FU issued
system.switch_cpus.iq.FU_type_0::SimdAdd            0      0.00%     72.64% # Type of FU issued
system.switch_cpus.iq.FU_type_0::SimdAddAcc            0      0.00%     72.64% # Type of FU issued
system.switch_cpus.iq.FU_type_0::SimdAlu            0      0.00%     72.64% # Type of FU issued
system.switch_cpus.iq.FU_type_0::SimdCmp            0      0.00%     72.64% # Type of FU issued
system.switch_cpus.iq.FU_type_0::SimdCvt            0      0.00%     72.64% # Type of FU issued
system.switch_cpus.iq.FU_type_0::SimdMisc            0      0.00%     72.64% # Type of FU issued
system.switch_cpus.iq.FU_type_0::SimdMult            0      0.00%     72.64% # Type of FU issued
system.switch_cpus.iq.FU_type_0::SimdMultAcc            0      0.00%     72.64% # Type of FU issued
system.switch_cpus.iq.FU_type_0::SimdShift            0      0.00%     72.64% # Type of FU issued
system.switch_cpus.iq.FU_type_0::SimdShiftAcc            0      0.00%     72.64% # Type of FU issued
system.switch_cpus.iq.FU_type_0::SimdDiv            0      0.00%     72.64% # Type of FU issued
system.switch_cpus.iq.FU_type_0::SimdSqrt            0      0.00%     72.64% # Type of FU issued
system.switch_cpus.iq.FU_type_0::SimdFloatAdd            0      0.00%     72.64% # Type of FU issued
system.switch_cpus.iq.FU_type_0::SimdFloatAlu            0      0.00%     72.64% # Type of FU issued
system.switch_cpus.iq.FU_type_0::SimdFloatCmp            0      0.00%     72.64% # Type of FU issued
system.switch_cpus.iq.FU_type_0::SimdFloatCvt            0      0.00%     72.64% # Type of FU issued
system.switch_cpus.iq.FU_type_0::SimdFloatDiv            0      0.00%     72.64% # Type of FU issued
system.switch_cpus.iq.FU_type_0::SimdFloatMisc            0      0.00%     72.64% # Type of FU issued
system.switch_cpus.iq.FU_type_0::SimdFloatMult            0      0.00%     72.64% # Type of FU issued
system.switch_cpus.iq.FU_type_0::SimdFloatMultAcc            0      0.00%     72.64% # Type of FU issued
system.switch_cpus.iq.FU_type_0::SimdFloatSqrt            0      0.00%     72.64% # Type of FU issued
system.switch_cpus.iq.FU_type_0::SimdReduceAdd            0      0.00%     72.64% # Type of FU issued
system.switch_cpus.iq.FU_type_0::SimdReduceAlu            0      0.00%     72.64% # Type of FU issued
system.switch_cpus.iq.FU_type_0::SimdReduceCmp            0      0.00%     72.64% # Type of FU issued
system.switch_cpus.iq.FU_type_0::SimdFloatReduceAdd            0      0.00%     72.64% # Type of FU issued
system.switch_cpus.iq.FU_type_0::SimdFloatReduceCmp            0      0.00%     72.64% # Type of FU issued
system.switch_cpus.iq.FU_type_0::SimdAes            0      0.00%     72.64% # Type of FU issued
system.switch_cpus.iq.FU_type_0::SimdAesMix            0      0.00%     72.64% # Type of FU issued
system.switch_cpus.iq.FU_type_0::SimdSha1Hash            0      0.00%     72.64% # Type of FU issued
system.switch_cpus.iq.FU_type_0::SimdSha1Hash2            0      0.00%     72.64% # Type of FU issued
system.switch_cpus.iq.FU_type_0::SimdSha256Hash            0      0.00%     72.64% # Type of FU issued
system.switch_cpus.iq.FU_type_0::SimdSha256Hash2            0      0.00%     72.64% # Type of FU issued
system.switch_cpus.iq.FU_type_0::SimdShaSigma2            0      0.00%     72.64% # Type of FU issued
system.switch_cpus.iq.FU_type_0::SimdShaSigma3            0      0.00%     72.64% # Type of FU issued
system.switch_cpus.iq.FU_type_0::SimdPredAlu            0      0.00%     72.64% # Type of FU issued
system.switch_cpus.iq.FU_type_0::MemRead      5095582     27.34%     99.98% # Type of FU issued
system.switch_cpus.iq.FU_type_0::MemWrite         3014      0.02%    100.00% # Type of FU issued
system.switch_cpus.iq.FU_type_0::FloatMemRead            0      0.00%    100.00% # Type of FU issued
system.switch_cpus.iq.FU_type_0::FloatMemWrite            0      0.00%    100.00% # Type of FU issued
system.switch_cpus.iq.FU_type_0::IprAccess            0      0.00%    100.00% # Type of FU issued
system.switch_cpus.iq.FU_type_0::InstPrefetch            0      0.00%    100.00% # Type of FU issued
system.switch_cpus.iq.FU_type_0::total       18637761                       # Type of FU issued
system.switch_cpus.iq.fp_alu_accesses               0                       # Number of floating point alu accesses
system.switch_cpus.iq.fp_inst_queue_reads            0                       # Number of floating instruction queue reads
system.switch_cpus.iq.fp_inst_queue_wakeup_accesses            0                       # Number of floating instruction queue wakeup accesses
system.switch_cpus.iq.fp_inst_queue_writes            0                       # Number of floating instruction queue writes
system.switch_cpus.iq.fu_busy_cnt                 256                       # FU busy when requested
system.switch_cpus.iq.fu_busy_rate           0.000014                       # FU busy rate (busy events/executed inst)
system.switch_cpus.iq.fu_full::No_OpClass            0      0.00%      0.00% # attempts to use FU when none available
system.switch_cpus.iq.fu_full::IntAlu              11      4.30%      4.30% # attempts to use FU when none available
system.switch_cpus.iq.fu_full::IntMult              0      0.00%      4.30% # attempts to use FU when none available
system.switch_cpus.iq.fu_full::IntDiv               0      0.00%      4.30% # attempts to use FU when none available
system.switch_cpus.iq.fu_full::FloatAdd             0      0.00%      4.30% # attempts to use FU when none available
system.switch_cpus.iq.fu_full::FloatCmp             0      0.00%      4.30% # attempts to use FU when none available
system.switch_cpus.iq.fu_full::FloatCvt             0      0.00%      4.30% # attempts to use FU when none available
system.switch_cpus.iq.fu_full::FloatMult            0      0.00%      4.30% # attempts to use FU when none available
system.switch_cpus.iq.fu_full::FloatMultAcc            0      0.00%      4.30% # attempts to use FU when none available
system.switch_cpus.iq.fu_full::FloatDiv             0      0.00%      4.30% # attempts to use FU when none available
system.switch_cpus.iq.fu_full::FloatMisc            0      0.00%      4.30% # attempts to use FU when none available
system.switch_cpus.iq.fu_full::FloatSqrt            0      0.00%      4.30% # attempts to use FU when none available
system.switch_cpus.iq.fu_full::SimdAdd              0      0.00%      4.30% # attempts to use FU when none available
system.switch_cpus.iq.fu_full::SimdAddAcc            0      0.00%      4.30% # attempts to use FU when none available
system.switch_cpus.iq.fu_full::SimdAlu              0      0.00%      4.30% # attempts to use FU when none available
system.switch_cpus.iq.fu_full::SimdCmp              0      0.00%      4.30% # attempts to use FU when none available
system.switch_cpus.iq.fu_full::SimdCvt              0      0.00%      4.30% # attempts to use FU when none available
system.switch_cpus.iq.fu_full::SimdMisc             0      0.00%      4.30% # attempts to use FU when none available
system.switch_cpus.iq.fu_full::SimdMult             0      0.00%      4.30% # attempts to use FU when none available
system.switch_cpus.iq.fu_full::SimdMultAcc            0      0.00%      4.30% # attempts to use FU when none available
system.switch_cpus.iq.fu_full::SimdShift            0      0.00%      4.30% # attempts to use FU when none available
system.switch_cpus.iq.fu_full::SimdShiftAcc            0      0.00%      4.30% # attempts to use FU when none available
system.switch_cpus.iq.fu_full::SimdDiv              0      0.00%      4.30% # attempts to use FU when none available
system.switch_cpus.iq.fu_full::SimdSqrt             0      0.00%      4.30% # attempts to use FU when none available
system.switch_cpus.iq.fu_full::SimdFloatAdd            0      0.00%      4.30% # attempts to use FU when none available
system.switch_cpus.iq.fu_full::SimdFloatAlu            0      0.00%      4.30% # attempts to use FU when none available
system.switch_cpus.iq.fu_full::SimdFloatCmp            0      0.00%      4.30% # attempts to use FU when none available
system.switch_cpus.iq.fu_full::SimdFloatCvt            0      0.00%      4.30% # attempts to use FU when none available
system.switch_cpus.iq.fu_full::SimdFloatDiv            0      0.00%      4.30% # attempts to use FU when none available
system.switch_cpus.iq.fu_full::SimdFloatMisc            0      0.00%      4.30% # attempts to use FU when none available
system.switch_cpus.iq.fu_full::SimdFloatMult            0      0.00%      4.30% # attempts to use FU when none available
system.switch_cpus.iq.fu_full::SimdFloatMultAcc            0      0.00%      4.30% # attempts to use FU when none available
system.switch_cpus.iq.fu_full::SimdFloatSqrt            0      0.00%      4.30% # attempts to use FU when none available
system.switch_cpus.iq.fu_full::SimdReduceAdd            0      0.00%      4.30% # attempts to use FU when none available
system.switch_cpus.iq.fu_full::SimdReduceAlu            0      0.00%      4.30% # attempts to use FU when none available
system.switch_cpus.iq.fu_full::SimdReduceCmp            0      0.00%      4.30% # attempts to use FU when none available
system.switch_cpus.iq.fu_full::SimdFloatReduceAdd            0      0.00%      4.30% # attempts to use FU when none available
system.switch_cpus.iq.fu_full::SimdFloatReduceCmp            0      0.00%      4.30% # attempts to use FU when none available
system.switch_cpus.iq.fu_full::SimdAes              0      0.00%      4.30% # attempts to use FU when none available
system.switch_cpus.iq.fu_full::SimdAesMix            0      0.00%      4.30% # attempts to use FU when none available
system.switch_cpus.iq.fu_full::SimdSha1Hash            0      0.00%      4.30% # attempts to use FU when none available
system.switch_cpus.iq.fu_full::SimdSha1Hash2            0      0.00%      4.30% # attempts to use FU when none available
system.switch_cpus.iq.fu_full::SimdSha256Hash            0      0.00%      4.30% # attempts to use FU when none available
system.switch_cpus.iq.fu_full::SimdSha256Hash2            0      0.00%      4.30% # attempts to use FU when none available
system.switch_cpus.iq.fu_full::SimdShaSigma2            0      0.00%      4.30% # attempts to use FU when none available
system.switch_cpus.iq.fu_full::SimdShaSigma3            0      0.00%      4.30% # attempts to use FU when none available
system.switch_cpus.iq.fu_full::SimdPredAlu            0      0.00%      4.30% # attempts to use FU when none available
system.switch_cpus.iq.fu_full::MemRead            139     54.30%     58.59% # attempts to use FU when none available
system.switch_cpus.iq.fu_full::MemWrite           106     41.41%    100.00% # attempts to use FU when none available
system.switch_cpus.iq.fu_full::FloatMemRead            0      0.00%    100.00% # attempts to use FU when none available
system.switch_cpus.iq.fu_full::FloatMemWrite            0      0.00%    100.00% # attempts to use FU when none available
system.switch_cpus.iq.fu_full::IprAccess            0      0.00%    100.00% # attempts to use FU when none available
system.switch_cpus.iq.fu_full::InstPrefetch            0      0.00%    100.00% # attempts to use FU when none available
system.switch_cpus.iq.int_alu_accesses       18637880                       # Number of integer alu accesses
system.switch_cpus.iq.int_inst_queue_reads    245964266                       # Number of integer instruction queue reads
system.switch_cpus.iq.int_inst_queue_wakeup_accesses     18568733                       # Number of integer instruction queue wakeup accesses
system.switch_cpus.iq.int_inst_queue_writes     20023724                       # Number of integer instruction queue writes
system.switch_cpus.iq.iqInstsAdded           19138134                       # Number of instructions added to the IQ (excludes non-spec)
system.switch_cpus.iq.iqInstsIssued          18637761                       # Number of instructions issued
system.switch_cpus.iq.iqSquashedInstsExamined       885584                       # Number of squashed instructions iterated over during squash; mainly for profiling
system.switch_cpus.iq.iqSquashedInstsIssued          148                       # Number of squashed instructions issued
system.switch_cpus.iq.iqSquashedOperandsExamined      2018128                       # Number of squashed operands that are examined and possibly removed from graph
system.switch_cpus.iq.issued_per_cycle::samples    208688340                       # Number of insts issued each cycle
system.switch_cpus.iq.issued_per_cycle::mean     0.089309                       # Number of insts issued each cycle
system.switch_cpus.iq.issued_per_cycle::stdev     0.383147                       # Number of insts issued each cycle
system.switch_cpus.iq.issued_per_cycle::underflows            0      0.00%      0.00% # Number of insts issued each cycle
system.switch_cpus.iq.issued_per_cycle::0    195345188     93.61%     93.61% # Number of insts issued each cycle
system.switch_cpus.iq.issued_per_cycle::1      9448628      4.53%     98.13% # Number of insts issued each cycle
system.switch_cpus.iq.issued_per_cycle::2      2617221      1.25%     99.39% # Number of insts issued each cycle
system.switch_cpus.iq.issued_per_cycle::3      1165846      0.56%     99.95% # Number of insts issued each cycle
system.switch_cpus.iq.issued_per_cycle::4       101895      0.05%    100.00% # Number of insts issued each cycle
system.switch_cpus.iq.issued_per_cycle::5         8382      0.00%    100.00% # Number of insts issued each cycle
system.switch_cpus.iq.issued_per_cycle::6          751      0.00%    100.00% # Number of insts issued each cycle
system.switch_cpus.iq.issued_per_cycle::7          275      0.00%    100.00% # Number of insts issued each cycle
system.switch_cpus.iq.issued_per_cycle::8          154      0.00%    100.00% # Number of insts issued each cycle
system.switch_cpus.iq.issued_per_cycle::overflows            0      0.00%    100.00% # Number of insts issued each cycle
system.switch_cpus.iq.issued_per_cycle::min_value            0                       # Number of insts issued each cycle
system.switch_cpus.iq.issued_per_cycle::max_value            8                       # Number of insts issued each cycle
system.switch_cpus.iq.issued_per_cycle::total    208688340                       # Number of insts issued each cycle
system.switch_cpus.iq.rate                   0.089309                       # Inst issue rate
system.switch_cpus.iq.vec_alu_accesses              0                       # Number of vector alu accesses
system.switch_cpus.iq.vec_inst_queue_reads            0                       # Number of vector instruction queue reads
system.switch_cpus.iq.vec_inst_queue_wakeup_accesses            0                       # Number of vector instruction queue wakeup accesses
system.switch_cpus.iq.vec_inst_queue_writes            0                       # Number of vector instruction queue writes
system.switch_cpus.itb.rdAccesses                   0                       # TLB accesses on read requests
system.switch_cpus.itb.rdMisses                     0                       # TLB misses on read requests
system.switch_cpus.itb.wrAccesses             1601005                       # TLB accesses on write requests
system.switch_cpus.itb.wrMisses                     6                       # TLB misses on write requests
system.switch_cpus.memDep0.conflictingLoads          927                       # Number of conflicting loads.
system.switch_cpus.memDep0.conflictingStores          312                       # Number of conflicting stores.
system.switch_cpus.memDep0.insertedLoads      5241243                       # Number of loads inserted to the mem dependence unit.
system.switch_cpus.memDep0.insertedStores         5812                       # Number of stores inserted to the mem dependence unit.
system.switch_cpus.misc_regfile_reads        10217395                       # number of misc regfile reads
system.switch_cpus.misc_regfile_writes              1                       # number of misc regfile writes
system.switch_cpus.numCycles                208689443                       # number of cpu cycles simulated
system.switch_cpus.numWorkItemsCompleted            0                       # number of work items this cpu completed
system.switch_cpus.numWorkItemsStarted              0                       # number of work items this cpu started
system.switch_cpus.rename.BlockCycles       195827654                       # Number of cycles rename is blocking
system.switch_cpus.rename.CommittedMaps      24003739                       # Number of HB maps that are committed
system.switch_cpus.rename.IQFullEvents        9653010                       # Number of times rename has blocked due to IQ full
system.switch_cpus.rename.IdleCycles          1146708                       # Number of cycles rename is idle
system.switch_cpus.rename.LQFullEvents           2029                       # Number of times rename has blocked due to LQ full
system.switch_cpus.rename.ROBFullEvents          6831                       # Number of times rename has blocked due to ROB full
system.switch_cpus.rename.RenameLookups      49875591                       # Number of register rename lookups that rename has made
system.switch_cpus.rename.RenamedInsts       19164567                       # Number of instructions processed by rename
system.switch_cpus.rename.RenamedOperands     25203403                       # Number of destination operands rename has renamed
system.switch_cpus.rename.RunCycles           1404867                       # Number of cycles rename is running
system.switch_cpus.rename.SquashCycles           9795                       # Number of cycles rename is squashing
system.switch_cpus.rename.UnblockCycles      10299308                       # Number of cycles rename is unblocking
system.switch_cpus.rename.UndoneMaps          1199533                       # Number of HB maps that are undone due to squashing
system.switch_cpus.rename.int_rename_lookups     25346270                       # Number of integer rename lookups
system.switch_cpus.rename.serializeStallCycles            0                       # count of cycles rename stalled for serializing inst
system.switch_cpus.rename.serializingInsts            0                       # count of serializing insts renamed
system.switch_cpus.rename.skidInsts          15527548                       # count of insts added to the skid buffer
system.switch_cpus.rename.tempSerializingInsts            0                       # count of temporary serializing insts renamed
system.switch_cpus.rob.rob_reads            227634788                       # The number of ROB reads
system.switch_cpus.rob.rob_writes            38392013                       # The number of ROB writes
system.switch_cpus.timesIdled                      14                       # Number of times that the entire CPU went into an idle state and unscheduled itself
system.tol2bus.snoop_filter.hit_multi_requests            0                       # Number of requests hitting in the snoop filter with multiple (>1) holders of the requested data.
system.tol2bus.snoop_filter.hit_multi_snoops            0                       # Number of snoops hitting in the snoop filter with multiple (>1) holders of the requested data.
system.tol2bus.snoop_filter.hit_single_requests      3043851                       # Number of requests hitting in the snoop filter with a single holder of the requested data.
system.tol2bus.snoop_filter.hit_single_snoops      1759593                       # Number of snoops hitting in the snoop filter with a single holder of the requested data.
system.tol2bus.snoop_filter.tot_requests      6088746                       # Total number of requests made to the snoop filter.
system.tol2bus.snoop_filter.tot_snoops        1759593                       # Total number of snoops made to the snoop filter.
system.membus.pwrStateResidencyTicks::UNDEFINED 258567146276500                       # Cumulative time (in ticks) in various power states
system.membus.trans_dist::ReadResp            2738058                       # Transaction distribution
system.membus.trans_dist::WritebackDirty          438                       # Transaction distribution
system.membus.trans_dist::CleanEvict          2733591                       # Transaction distribution
system.membus.trans_dist::ReadExReq               221                       # Transaction distribution
system.membus.trans_dist::ReadExResp              221                       # Transaction distribution
system.membus.trans_dist::ReadSharedReq       2738058                       # Transaction distribution
system.membus.pkt_count_system.l2.mem_side::system.mem_ctrls.port      8210587                       # Packet count per connected master and slave (bytes)
system.membus.pkt_count_system.l2.mem_side::total      8210587                       # Packet count per connected master and slave (bytes)
system.membus.pkt_count::total                8210587                       # Packet count per connected master and slave (bytes)
system.membus.pkt_size_system.l2.mem_side::system.mem_ctrls.port    175277888                       # Cumulative packet size per connected master and slave (bytes)
system.membus.pkt_size_system.l2.mem_side::total    175277888                       # Cumulative packet size per connected master and slave (bytes)
system.membus.pkt_size::total               175277888                       # Cumulative packet size per connected master and slave (bytes)
system.membus.snoops                                0                       # Total snoops (count)
system.membus.snoopTraffic                          0                       # Total snoop traffic (bytes)
system.membus.snoop_fanout::samples           2738279                       # Request fanout histogram
system.membus.snoop_fanout::mean                    0                       # Request fanout histogram
system.membus.snoop_fanout::stdev                   0                       # Request fanout histogram
system.membus.snoop_fanout::underflows              0      0.00%      0.00% # Request fanout histogram
system.membus.snoop_fanout::0                 2738279    100.00%    100.00% # Request fanout histogram
system.membus.snoop_fanout::1                       0      0.00%    100.00% # Request fanout histogram
system.membus.snoop_fanout::overflows               0      0.00%    100.00% # Request fanout histogram
system.membus.snoop_fanout::min_value               0                       # Request fanout histogram
system.membus.snoop_fanout::max_value               0                       # Request fanout histogram
system.membus.snoop_fanout::total             2738279                       # Request fanout histogram
system.membus.reqLayer2.occupancy          6250240000                       # Layer occupancy (ticks)
system.membus.reqLayer2.utilization               6.0                       # Layer utilization (%)
system.membus.respLayer1.occupancy        14242263500                       # Layer occupancy (ticks)
system.membus.respLayer1.utilization             13.6                       # Layer utilization (%)
system.switch_cpus.pwrStateResidencyTicks::OFF 104344731500                       # Cumulative time (in ticks) in various power states
system.switch_cpus.dtb.walker.pwrStateResidencyTicks::UNDEFINED 258567146276500                       # Cumulative time (in ticks) in various power states
system.switch_cpus.itb.walker.pwrStateResidencyTicks::UNDEFINED 258567146276500                       # Cumulative time (in ticks) in various power states
system.tol2bus.pwrStateResidencyTicks::UNDEFINED 258567146276500                       # Cumulative time (in ticks) in various power states
system.tol2bus.trans_dist::ReadResp           3044671                       # Transaction distribution
system.tol2bus.trans_dist::WritebackDirty          902                       # Transaction distribution
system.tol2bus.trans_dist::CleanEvict         5777477                       # Transaction distribution
system.tol2bus.trans_dist::ReadExReq              221                       # Transaction distribution
system.tol2bus.trans_dist::ReadExResp             221                       # Transaction distribution
system.tol2bus.trans_dist::ReadCleanReq            17                       # Transaction distribution
system.tol2bus.trans_dist::ReadSharedReq      3044657                       # Transaction distribution
system.tol2bus.pkt_count_system.cpu.icache.mem_side::system.l2.cpu_side           34                       # Packet count per connected master and slave (bytes)
system.tol2bus.pkt_count_system.cpu.dcache.mem_side::system.l2.cpu_side      9133604                       # Packet count per connected master and slave (bytes)
system.tol2bus.pkt_count::total               9133638                       # Packet count per connected master and slave (bytes)
system.tol2bus.pkt_size_system.cpu.icache.mem_side::system.l2.cpu_side         1088                       # Cumulative packet size per connected master and slave (bytes)
system.tol2bus.pkt_size_system.cpu.dcache.mem_side::system.l2.cpu_side    194901696                       # Cumulative packet size per connected master and slave (bytes)
system.tol2bus.pkt_size::total              194902784                       # Cumulative packet size per connected master and slave (bytes)
system.tol2bus.snoops                         2734528                       # Total snoops (count)
system.tol2bus.snoopTraffic                     28032                       # Total snoop traffic (bytes)
system.tol2bus.snoop_fanout::samples          5779423                       # Request fanout histogram
system.tol2bus.snoop_fanout::mean            0.304458                       # Request fanout histogram
system.tol2bus.snoop_fanout::stdev           0.460178                       # Request fanout histogram
system.tol2bus.snoop_fanout::underflows             0      0.00%      0.00% # Request fanout histogram
system.tol2bus.snoop_fanout::0                4019830     69.55%     69.55% # Request fanout histogram
system.tol2bus.snoop_fanout::1                1759593     30.45%    100.00% # Request fanout histogram
system.tol2bus.snoop_fanout::2                      0      0.00%    100.00% # Request fanout histogram
system.tol2bus.snoop_fanout::3                      0      0.00%    100.00% # Request fanout histogram
system.tol2bus.snoop_fanout::4                      0      0.00%    100.00% # Request fanout histogram
system.tol2bus.snoop_fanout::overflows              0      0.00%    100.00% # Request fanout histogram
system.tol2bus.snoop_fanout::min_value              0                       # Request fanout histogram
system.tol2bus.snoop_fanout::max_value              1                       # Request fanout histogram
system.tol2bus.snoop_fanout::total            5779423                       # Request fanout histogram
system.tol2bus.reqLayer0.occupancy         3044833500                       # Layer occupancy (ticks)
system.tol2bus.reqLayer0.utilization              2.9                       # Layer utilization (%)
system.tol2bus.respLayer1.occupancy        4567305000                       # Layer occupancy (ticks)
system.tol2bus.respLayer1.utilization             4.4                       # Layer utilization (%)
system.tol2bus.respLayer0.occupancy             22500                       # Layer occupancy (ticks)
system.tol2bus.respLayer0.utilization             0.0                       # Layer utilization (%)
system.voltage_domain.voltage                       1                       # Voltage in Volts
system.clk_domain.clock                          1000                       # Clock period in ticks
system.l2.pwrStateResidencyTicks::UNDEFINED 258567146276500                       # Cumulative time (in ticks) in various power states
system.l2.demand_hits::.switch_cpus.data       306614                       # number of demand (read+write) hits
system.l2.demand_hits::total                   306614                       # number of demand (read+write) hits
system.l2.overall_hits::.switch_cpus.data       306614                       # number of overall hits
system.l2.overall_hits::total                  306614                       # number of overall hits
system.l2.demand_misses::.cpu.inst                  2                       # number of demand (read+write) misses
system.l2.demand_misses::.cpu.data                  5                       # number of demand (read+write) misses
system.l2.demand_misses::.switch_cpus.inst           15                       # number of demand (read+write) misses
system.l2.demand_misses::.switch_cpus.data      2738259                       # number of demand (read+write) misses
system.l2.demand_misses::total                2738281                       # number of demand (read+write) misses
system.l2.overall_misses::.cpu.inst                 2                       # number of overall misses
system.l2.overall_misses::.cpu.data                 5                       # number of overall misses
system.l2.overall_misses::.switch_cpus.inst           15                       # number of overall misses
system.l2.overall_misses::.switch_cpus.data      2738259                       # number of overall misses
system.l2.overall_misses::total               2738281                       # number of overall misses
system.l2.demand_miss_latency::.switch_cpus.inst      1175500                       # number of demand (read+write) miss cycles
system.l2.demand_miss_latency::.switch_cpus.data 217623093500                       # number of demand (read+write) miss cycles
system.l2.demand_miss_latency::total     217624269000                       # number of demand (read+write) miss cycles
system.l2.overall_miss_latency::.switch_cpus.inst      1175500                       # number of overall miss cycles
system.l2.overall_miss_latency::.switch_cpus.data 217623093500                       # number of overall miss cycles
system.l2.overall_miss_latency::total    217624269000                       # number of overall miss cycles
system.l2.demand_accesses::.cpu.inst                2                       # number of demand (read+write) accesses
system.l2.demand_accesses::.cpu.data                5                       # number of demand (read+write) accesses
system.l2.demand_accesses::.switch_cpus.inst           15                       # number of demand (read+write) accesses
system.l2.demand_accesses::.switch_cpus.data      3044873                       # number of demand (read+write) accesses
system.l2.demand_accesses::total              3044895                       # number of demand (read+write) accesses
system.l2.overall_accesses::.cpu.inst               2                       # number of overall (read+write) accesses
system.l2.overall_accesses::.cpu.data               5                       # number of overall (read+write) accesses
system.l2.overall_accesses::.switch_cpus.inst           15                       # number of overall (read+write) accesses
system.l2.overall_accesses::.switch_cpus.data      3044873                       # number of overall (read+write) accesses
system.l2.overall_accesses::total             3044895                       # number of overall (read+write) accesses
system.l2.demand_miss_rate::.cpu.inst               1                       # miss rate for demand accesses
system.l2.demand_miss_rate::.cpu.data               1                       # miss rate for demand accesses
system.l2.demand_miss_rate::.switch_cpus.inst            1                       # miss rate for demand accesses
system.l2.demand_miss_rate::.switch_cpus.data     0.899302                       # miss rate for demand accesses
system.l2.demand_miss_rate::total            0.899302                       # miss rate for demand accesses
system.l2.overall_miss_rate::.cpu.inst              1                       # miss rate for overall accesses
system.l2.overall_miss_rate::.cpu.data              1                       # miss rate for overall accesses
system.l2.overall_miss_rate::.switch_cpus.inst            1                       # miss rate for overall accesses
system.l2.overall_miss_rate::.switch_cpus.data     0.899302                       # miss rate for overall accesses
system.l2.overall_miss_rate::total           0.899302                       # miss rate for overall accesses
system.l2.demand_avg_miss_latency::.switch_cpus.inst 78366.666667                       # average overall miss latency
system.l2.demand_avg_miss_latency::.switch_cpus.data 79474.985200                       # average overall miss latency
system.l2.demand_avg_miss_latency::total 79474.775963                       # average overall miss latency
system.l2.overall_avg_miss_latency::.switch_cpus.inst 78366.666667                       # average overall miss latency
system.l2.overall_avg_miss_latency::.switch_cpus.data 79474.985200                       # average overall miss latency
system.l2.overall_avg_miss_latency::total 79474.775963                       # average overall miss latency
system.l2.blocked_cycles::no_mshrs                  0                       # number of cycles access was blocked
system.l2.blocked_cycles::no_targets                0                       # number of cycles access was blocked
system.l2.blocked::no_mshrs                         0                       # number of cycles access was blocked
system.l2.blocked::no_targets                       0                       # number of cycles access was blocked
system.l2.avg_blocked_cycles::no_mshrs            nan                       # average number of cycles each access was blocked
system.l2.avg_blocked_cycles::no_targets          nan                       # average number of cycles each access was blocked
system.l2.writebacks::.writebacks                 438                       # number of writebacks
system.l2.writebacks::total                       438                       # number of writebacks
system.l2.demand_mshr_misses::.switch_cpus.inst           15                       # number of demand (read+write) MSHR misses
system.l2.demand_mshr_misses::.switch_cpus.data      2738259                       # number of demand (read+write) MSHR misses
system.l2.demand_mshr_misses::total           2738274                       # number of demand (read+write) MSHR misses
system.l2.overall_mshr_misses::.switch_cpus.inst           15                       # number of overall MSHR misses
system.l2.overall_mshr_misses::.switch_cpus.data      2738259                       # number of overall MSHR misses
system.l2.overall_mshr_misses::total          2738274                       # number of overall MSHR misses
system.l2.demand_mshr_miss_latency::.switch_cpus.inst      1025500                       # number of demand (read+write) MSHR miss cycles
system.l2.demand_mshr_miss_latency::.switch_cpus.data 190240523500                       # number of demand (read+write) MSHR miss cycles
system.l2.demand_mshr_miss_latency::total 190241549000                       # number of demand (read+write) MSHR miss cycles
system.l2.overall_mshr_miss_latency::.switch_cpus.inst      1025500                       # number of overall MSHR miss cycles
system.l2.overall_mshr_miss_latency::.switch_cpus.data 190240523500                       # number of overall MSHR miss cycles
system.l2.overall_mshr_miss_latency::total 190241549000                       # number of overall MSHR miss cycles
system.l2.demand_mshr_miss_rate::.switch_cpus.inst            1                       # mshr miss rate for demand accesses
system.l2.demand_mshr_miss_rate::.switch_cpus.data     0.899302                       # mshr miss rate for demand accesses
system.l2.demand_mshr_miss_rate::total       0.899300                       # mshr miss rate for demand accesses
system.l2.overall_mshr_miss_rate::.switch_cpus.inst            1                       # mshr miss rate for overall accesses
system.l2.overall_mshr_miss_rate::.switch_cpus.data     0.899302                       # mshr miss rate for overall accesses
system.l2.overall_mshr_miss_rate::total      0.899300                       # mshr miss rate for overall accesses
system.l2.demand_avg_mshr_miss_latency::.switch_cpus.inst 68366.666667                       # average overall mshr miss latency
system.l2.demand_avg_mshr_miss_latency::.switch_cpus.data 69474.992504                       # average overall mshr miss latency
system.l2.demand_avg_mshr_miss_latency::total 69474.986433                       # average overall mshr miss latency
system.l2.overall_avg_mshr_miss_latency::.switch_cpus.inst 68366.666667                       # average overall mshr miss latency
system.l2.overall_avg_mshr_miss_latency::.switch_cpus.data 69474.992504                       # average overall mshr miss latency
system.l2.overall_avg_mshr_miss_latency::total 69474.986433                       # average overall mshr miss latency
system.l2.replacements                        2734528                       # number of replacements
system.l2.WritebackDirty_hits::.writebacks          464                       # number of WritebackDirty hits
system.l2.WritebackDirty_hits::total              464                       # number of WritebackDirty hits
system.l2.WritebackDirty_accesses::.writebacks          464                       # number of WritebackDirty accesses(hits+misses)
system.l2.WritebackDirty_accesses::total          464                       # number of WritebackDirty accesses(hits+misses)
system.l2.CleanEvict_mshr_misses::.writebacks      1759094                       # number of CleanEvict MSHR misses
system.l2.CleanEvict_mshr_misses::total       1759094                       # number of CleanEvict MSHR misses
system.l2.CleanEvict_mshr_miss_rate::.writebacks          inf                       # mshr miss rate for CleanEvict accesses
system.l2.CleanEvict_mshr_miss_rate::total          inf                       # mshr miss rate for CleanEvict accesses
system.l2.ReadExReq_misses::.switch_cpus.data          221                       # number of ReadExReq misses
system.l2.ReadExReq_misses::total                 221                       # number of ReadExReq misses
system.l2.ReadExReq_miss_latency::.switch_cpus.data     19829500                       # number of ReadExReq miss cycles
system.l2.ReadExReq_miss_latency::total      19829500                       # number of ReadExReq miss cycles
system.l2.ReadExReq_accesses::.switch_cpus.data          221                       # number of ReadExReq accesses(hits+misses)
system.l2.ReadExReq_accesses::total               221                       # number of ReadExReq accesses(hits+misses)
system.l2.ReadExReq_miss_rate::.switch_cpus.data            1                       # miss rate for ReadExReq accesses
system.l2.ReadExReq_miss_rate::total                1                       # miss rate for ReadExReq accesses
system.l2.ReadExReq_avg_miss_latency::.switch_cpus.data 89726.244344                       # average ReadExReq miss latency
system.l2.ReadExReq_avg_miss_latency::total 89726.244344                       # average ReadExReq miss latency
system.l2.ReadExReq_mshr_misses::.switch_cpus.data          221                       # number of ReadExReq MSHR misses
system.l2.ReadExReq_mshr_misses::total            221                       # number of ReadExReq MSHR misses
system.l2.ReadExReq_mshr_miss_latency::.switch_cpus.data     17619500                       # number of ReadExReq MSHR miss cycles
system.l2.ReadExReq_mshr_miss_latency::total     17619500                       # number of ReadExReq MSHR miss cycles
system.l2.ReadExReq_mshr_miss_rate::.switch_cpus.data            1                       # mshr miss rate for ReadExReq accesses
system.l2.ReadExReq_mshr_miss_rate::total            1                       # mshr miss rate for ReadExReq accesses
system.l2.ReadExReq_avg_mshr_miss_latency::.switch_cpus.data 79726.244344                       # average ReadExReq mshr miss latency
system.l2.ReadExReq_avg_mshr_miss_latency::total 79726.244344                       # average ReadExReq mshr miss latency
system.l2.ReadCleanReq_misses::.cpu.inst            2                       # number of ReadCleanReq misses
system.l2.ReadCleanReq_misses::.switch_cpus.inst           15                       # number of ReadCleanReq misses
system.l2.ReadCleanReq_misses::total               17                       # number of ReadCleanReq misses
system.l2.ReadCleanReq_miss_latency::.switch_cpus.inst      1175500                       # number of ReadCleanReq miss cycles
system.l2.ReadCleanReq_miss_latency::total      1175500                       # number of ReadCleanReq miss cycles
system.l2.ReadCleanReq_accesses::.cpu.inst            2                       # number of ReadCleanReq accesses(hits+misses)
system.l2.ReadCleanReq_accesses::.switch_cpus.inst           15                       # number of ReadCleanReq accesses(hits+misses)
system.l2.ReadCleanReq_accesses::total             17                       # number of ReadCleanReq accesses(hits+misses)
system.l2.ReadCleanReq_miss_rate::.cpu.inst            1                       # miss rate for ReadCleanReq accesses
system.l2.ReadCleanReq_miss_rate::.switch_cpus.inst            1                       # miss rate for ReadCleanReq accesses
system.l2.ReadCleanReq_miss_rate::total             1                       # miss rate for ReadCleanReq accesses
system.l2.ReadCleanReq_avg_miss_latency::.switch_cpus.inst 78366.666667                       # average ReadCleanReq miss latency
system.l2.ReadCleanReq_avg_miss_latency::total 69147.058824                       # average ReadCleanReq miss latency
system.l2.ReadCleanReq_mshr_misses::.switch_cpus.inst           15                       # number of ReadCleanReq MSHR misses
system.l2.ReadCleanReq_mshr_misses::total           15                       # number of ReadCleanReq MSHR misses
system.l2.ReadCleanReq_mshr_miss_latency::.switch_cpus.inst      1025500                       # number of ReadCleanReq MSHR miss cycles
system.l2.ReadCleanReq_mshr_miss_latency::total      1025500                       # number of ReadCleanReq MSHR miss cycles
system.l2.ReadCleanReq_mshr_miss_rate::.switch_cpus.inst            1                       # mshr miss rate for ReadCleanReq accesses
system.l2.ReadCleanReq_mshr_miss_rate::total     0.882353                       # mshr miss rate for ReadCleanReq accesses
system.l2.ReadCleanReq_avg_mshr_miss_latency::.switch_cpus.inst 68366.666667                       # average ReadCleanReq mshr miss latency
system.l2.ReadCleanReq_avg_mshr_miss_latency::total 68366.666667                       # average ReadCleanReq mshr miss latency
system.l2.ReadSharedReq_hits::.switch_cpus.data       306614                       # number of ReadSharedReq hits
system.l2.ReadSharedReq_hits::total            306614                       # number of ReadSharedReq hits
system.l2.ReadSharedReq_misses::.cpu.data            5                       # number of ReadSharedReq misses
system.l2.ReadSharedReq_misses::.switch_cpus.data      2738038                       # number of ReadSharedReq misses
system.l2.ReadSharedReq_misses::total         2738043                       # number of ReadSharedReq misses
system.l2.ReadSharedReq_miss_latency::.switch_cpus.data 217603264000                       # number of ReadSharedReq miss cycles
[...]
system.cpu.icache.tags.occ_percent::.switch_cpus.inst     0.000047                       # Average percentage of cache occupancy
system.cpu.icache.tags.occ_percent::total     0.000054                       # Average percentage of cache occupancy
system.cpu.icache.tags.occ_task_id_blocks::1024           17                       # Occupied blocks per task id
system.cpu.icache.tags.age_task_id_blocks_1024::4           17                       # Occupied blocks per task id
system.cpu.icache.tags.occ_task_id_percent::1024     0.033203                       # Percentage of cache occupancy per task id
system.cpu.icache.tags.tag_accesses          12831233                       # Number of tag accesses
system.cpu.icache.tags.data_accesses         12831233                       # Number of data accesses
system.cpu.dtb.walker.pwrStateResidencyTicks::UNDEFINED 258881703233000                       # Cumulative time (in ticks) in various power states
system.cpu.interrupts.clk_domain.clock           8000                       # Clock period in ticks
system.cpu.itb_walker_cache.pwrStateResidencyTicks::UNDEFINED 258881703233000                       # Cumulative time (in ticks) in various power states
system.cpu.itb_walker_cache.blocked_cycles::no_mshrs            0                       # number of cycles access was blocked
system.cpu.itb_walker_cache.blocked_cycles::no_targets            0                       # number of cycles access was blocked
system.cpu.itb_walker_cache.blocked::no_mshrs            0                       # number of cycles access was blocked
system.cpu.itb_walker_cache.blocked::no_targets            0                       # number of cycles access was blocked
system.cpu.itb_walker_cache.avg_blocked_cycles::no_mshrs          nan                       # average number of cycles each access was blocked
system.cpu.itb_walker_cache.avg_blocked_cycles::no_targets          nan                       # average number of cycles each access was blocked
system.cpu.itb_walker_cache.replacements            0                       # number of replacements
system.cpu.itb_walker_cache.tags.pwrStateResidencyTicks::UNDEFINED 258881703233000                       # Cumulative time (in ticks) in various power states
system.cpu.itb_walker_cache.tags.tagsinuse            0                       # Cycle average of tags in use
system.cpu.itb_walker_cache.tags.total_refs            0                       # Total number of references to valid blocks.
system.cpu.itb_walker_cache.tags.sampled_refs            0                       # Sample count of references to valid blocks.
system.cpu.itb_walker_cache.tags.avg_refs          nan                       # Average number of references to valid blocks.
system.cpu.itb_walker_cache.tags.warmup_cycle            0                       # Cycle when the warmup percentage was hit.
system.cpu.itb_walker_cache.tags.tag_accesses            0                       # Number of tag accesses
system.cpu.itb_walker_cache.tags.data_accesses            0                       # Number of data accesses
system.cpu.itb.walker.pwrStateResidencyTicks::UNDEFINED 258881703233000                       # Cumulative time (in ticks) in various power states
system.cpu.dtb_walker_cache.pwrStateResidencyTicks::UNDEFINED 258881703233000                       # Cumulative time (in ticks) in various power states
system.cpu.dtb_walker_cache.blocked_cycles::no_mshrs            0                       # number of cycles access was blocked
system.cpu.dtb_walker_cache.blocked_cycles::no_targets            0                       # number of cycles access was blocked
system.cpu.dtb_walker_cache.blocked::no_mshrs            0                       # number of cycles access was blocked
system.cpu.dtb_walker_cache.blocked::no_targets            0                       # number of cycles access was blocked
system.cpu.dtb_walker_cache.avg_blocked_cycles::no_mshrs          nan                       # average number of cycles each access was blocked
system.cpu.dtb_walker_cache.avg_blocked_cycles::no_targets          nan                       # average number of cycles each access was blocked
system.cpu.dtb_walker_cache.replacements            0                       # number of replacements
system.cpu.dtb_walker_cache.tags.pwrStateResidencyTicks::UNDEFINED 258881703233000                       # Cumulative time (in ticks) in various power states
system.cpu.dtb_walker_cache.tags.tagsinuse            0                       # Cycle average of tags in use
system.cpu.dtb_walker_cache.tags.total_refs            0                       # Total number of references to valid blocks.
system.cpu.dtb_walker_cache.tags.sampled_refs            0                       # Sample count of references to valid blocks.
system.cpu.dtb_walker_cache.tags.avg_refs          nan                       # Average number of references to valid blocks.
system.cpu.dtb_walker_cache.tags.warmup_cycle            0                       # Cycle when the warmup percentage was hit.
system.cpu.dtb_walker_cache.tags.tag_accesses            0                       # Number of tag accesses
system.cpu.dtb_walker_cache.tags.data_accesses            0                       # Number of data accesses
system.cpu.dcache.pwrStateResidencyTicks::UNDEFINED 258881703233000                       # Cumulative time (in ticks) in various power states
system.cpu.dcache.demand_hits::.switch_cpus.data      7279868                       # number of demand (read+write) hits
system.cpu.dcache.demand_hits::total          7279868                       # number of demand (read+write) hits
system.cpu.dcache.overall_hits::.switch_cpus.data      7279868                       # number of overall hits
system.cpu.dcache.overall_hits::total         7279868                       # number of overall hits
system.cpu.dcache.demand_misses::.cpu.data            5                       # number of demand (read+write) misses
system.cpu.dcache.demand_misses::.switch_cpus.data     12898659                       # number of demand (read+write) misses
system.cpu.dcache.demand_misses::total       12898664                       # number of demand (read+write) misses
system.cpu.dcache.overall_misses::.cpu.data            5                       # number of overall misses
system.cpu.dcache.overall_misses::.switch_cpus.data     12898659                       # number of overall misses
system.cpu.dcache.overall_misses::total      12898664                       # number of overall misses
system.cpu.dcache.demand_miss_latency::.switch_cpus.data 979597159500                       # number of demand (read+write) miss cycles
system.cpu.dcache.demand_miss_latency::total 979597159500                       # number of demand (read+write) miss cycles
system.cpu.dcache.overall_miss_latency::.switch_cpus.data 979597159500                       # number of overall miss cycles
system.cpu.dcache.overall_miss_latency::total 979597159500                       # number of overall miss cycles
system.cpu.dcache.demand_accesses::.cpu.data            5                       # number of demand (read+write) accesses
system.cpu.dcache.demand_accesses::.switch_cpus.data     20178527                       # number of demand (read+write) accesses
system.cpu.dcache.demand_accesses::total     20178532                       # number of demand (read+write) accesses
system.cpu.dcache.overall_accesses::.cpu.data            5                       # number of overall (read+write) accesses
system.cpu.dcache.overall_accesses::.switch_cpus.data     20178527                       # number of overall (read+write) accesses
system.cpu.dcache.overall_accesses::total     20178532                       # number of overall (read+write) accesses
system.cpu.dcache.demand_miss_rate::.cpu.data            1                       # miss rate for demand accesses
system.cpu.dcache.demand_miss_rate::.switch_cpus.data     0.639227                       # miss rate for demand accesses
system.cpu.dcache.demand_miss_rate::total     0.639227                       # miss rate for demand accesses
system.cpu.dcache.overall_miss_rate::.cpu.data            1                       # miss rate for overall accesses
system.cpu.dcache.overall_miss_rate::.switch_cpus.data     0.639227                       # miss rate for overall accesses
system.cpu.dcache.overall_miss_rate::total     0.639227                       # miss rate for overall accesses
system.cpu.dcache.demand_avg_miss_latency::.switch_cpus.data 75945.659119                       # average overall miss latency
system.cpu.dcache.demand_avg_miss_latency::total 75945.629679                       # average overall miss latency
system.cpu.dcache.overall_avg_miss_latency::.switch_cpus.data 75945.659119                       # average overall miss latency
system.cpu.dcache.overall_avg_miss_latency::total 75945.629679                       # average overall miss latency
system.cpu.dcache.blocked_cycles::no_mshrs     18186613                       # number of cycles access was blocked
system.cpu.dcache.blocked_cycles::no_targets            0                       # number of cycles access was blocked
system.cpu.dcache.blocked::no_mshrs           1419529                       # number of cycles access was blocked
system.cpu.dcache.blocked::no_targets               0                       # number of cycles access was blocked
system.cpu.dcache.avg_blocked_cycles::no_mshrs    12.811723                       # average number of cycles each access was blocked
system.cpu.dcache.avg_blocked_cycles::no_targets          nan                       # average number of cycles each access was blocked
system.cpu.dcache.writebacks::.writebacks         1829                       # number of writebacks
system.cpu.dcache.writebacks::total              1829                       # number of writebacks
system.cpu.dcache.demand_mshr_hits::.switch_cpus.data       775105                       # number of demand (read+write) MSHR hits
system.cpu.dcache.demand_mshr_hits::total       775105                       # number of demand (read+write) MSHR hits
system.cpu.dcache.overall_mshr_hits::.switch_cpus.data       775105                       # number of overall MSHR hits
system.cpu.dcache.overall_mshr_hits::total       775105                       # number of overall MSHR hits
system.cpu.dcache.demand_mshr_misses::.switch_cpus.data     12123554                       # number of demand (read+write) MSHR misses
system.cpu.dcache.demand_mshr_misses::total     12123554                       # number of demand (read+write) MSHR misses
system.cpu.dcache.overall_mshr_misses::.switch_cpus.data     12123554                       # number of overall MSHR misses
system.cpu.dcache.overall_mshr_misses::total     12123554                       # number of overall MSHR misses
system.cpu.dcache.demand_mshr_miss_latency::.switch_cpus.data 913210703500                       # number of demand (read+write) MSHR miss cycles
system.cpu.dcache.demand_mshr_miss_latency::total 913210703500                       # number of demand (read+write) MSHR miss cycles
system.cpu.dcache.overall_mshr_miss_latency::.switch_cpus.data 913210703500                       # number of overall MSHR miss cycles
system.cpu.dcache.overall_mshr_miss_latency::total 913210703500                       # number of overall MSHR miss cycles
system.cpu.dcache.demand_mshr_miss_rate::.switch_cpus.data     0.600815                       # mshr miss rate for demand accesses
system.cpu.dcache.demand_mshr_miss_rate::total     0.600814                       # mshr miss rate for demand accesses
system.cpu.dcache.overall_mshr_miss_rate::.switch_cpus.data     0.600815                       # mshr miss rate for overall accesses
system.cpu.dcache.overall_mshr_miss_rate::total     0.600814                       # mshr miss rate for overall accesses
system.cpu.dcache.demand_avg_mshr_miss_latency::.switch_cpus.data 75325.329808                       # average overall mshr miss latency
system.cpu.dcache.demand_avg_mshr_miss_latency::total 75325.329808                       # average overall mshr miss latency
system.cpu.dcache.overall_avg_mshr_miss_latency::.switch_cpus.data 75325.329808                       # average overall mshr miss latency
system.cpu.dcache.overall_avg_mshr_miss_latency::total 75325.329808                       # average overall mshr miss latency
system.cpu.dcache.replacements               12122534                       # number of replacements
system.cpu.dcache.ReadReq_hits::.switch_cpus.data      7279046                       # number of ReadReq hits
system.cpu.dcache.ReadReq_hits::total         7279046                       # number of ReadReq hits
system.cpu.dcache.ReadReq_misses::.cpu.data            5                       # number of ReadReq misses
system.cpu.dcache.ReadReq_misses::.switch_cpus.data     12897839                       # number of ReadReq misses
system.cpu.dcache.ReadReq_misses::total      12897844                       # number of ReadReq misses
system.cpu.dcache.ReadReq_miss_latency::.switch_cpus.data 979522772500                       # number of ReadReq miss cycles
system.cpu.dcache.ReadReq_miss_latency::total 979522772500                       # number of ReadReq miss cycles
system.cpu.dcache.ReadReq_accesses::.cpu.data            5                       # number of ReadReq accesses(hits+misses)
system.cpu.dcache.ReadReq_accesses::.switch_cpus.data     20176885                       # number of ReadReq accesses(hits+misses)
system.cpu.dcache.ReadReq_accesses::total     20176890                       # number of ReadReq accesses(hits+misses)
system.cpu.dcache.ReadReq_miss_rate::.cpu.data            1                       # miss rate for ReadReq accesses
system.cpu.dcache.ReadReq_miss_rate::.switch_cpus.data     0.639238                       # miss rate for ReadReq accesses
system.cpu.dcache.ReadReq_miss_rate::total     0.639238                       # miss rate for ReadReq accesses
system.cpu.dcache.ReadReq_avg_miss_latency::.switch_cpus.data 75944.720081                       # average ReadReq miss latency
system.cpu.dcache.ReadReq_avg_miss_latency::total 75944.690640                       # average ReadReq miss latency
system.cpu.dcache.ReadReq_mshr_hits::.switch_cpus.data       775105                       # number of ReadReq MSHR hits
system.cpu.dcache.ReadReq_mshr_hits::total       775105                       # number of ReadReq MSHR hits
system.cpu.dcache.ReadReq_mshr_misses::.switch_cpus.data     12122734                       # number of ReadReq MSHR misses
system.cpu.dcache.ReadReq_mshr_misses::total     12122734                       # number of ReadReq MSHR misses
system.cpu.dcache.ReadReq_mshr_miss_latency::.switch_cpus.data 913137136500                       # number of ReadReq MSHR miss cycles
system.cpu.dcache.ReadReq_mshr_miss_latency::total 913137136500                       # number of ReadReq MSHR miss cycles
system.cpu.dcache.ReadReq_mshr_miss_rate::.switch_cpus.data     0.600823                       # mshr miss rate for ReadReq accesses
system.cpu.dcache.ReadReq_mshr_miss_rate::total     0.600823                       # mshr miss rate for ReadReq accesses
system.cpu.dcache.ReadReq_avg_mshr_miss_latency::.switch_cpus.data 75324.356412                       # average ReadReq mshr miss latency
system.cpu.dcache.ReadReq_avg_mshr_miss_latency::total 75324.356412                       # average ReadReq mshr miss latency
system.cpu.dcache.WriteReq_hits::.switch_cpus.data          822                       # number of WriteReq hits
system.cpu.dcache.WriteReq_hits::total            822                       # number of WriteReq hits
system.cpu.dcache.WriteReq_misses::.switch_cpus.data          820                       # number of WriteReq misses
system.cpu.dcache.WriteReq_misses::total          820                       # number of WriteReq misses
system.cpu.dcache.WriteReq_miss_latency::.switch_cpus.data     74387000                       # number of WriteReq miss cycles
system.cpu.dcache.WriteReq_miss_latency::total     74387000                       # number of WriteReq miss cycles
system.cpu.dcache.WriteReq_accesses::.switch_cpus.data         1642                       # number of WriteReq accesses(hits+misses)
system.cpu.dcache.WriteReq_accesses::total         1642                       # number of WriteReq accesses(hits+misses)
system.cpu.dcache.WriteReq_miss_rate::.switch_cpus.data     0.499391                       # miss rate for WriteReq accesses
system.cpu.dcache.WriteReq_miss_rate::total     0.499391                       # miss rate for WriteReq accesses
system.cpu.dcache.WriteReq_avg_miss_latency::.switch_cpus.data 90715.853659                       # average WriteReq miss latency
system.cpu.dcache.WriteReq_avg_miss_latency::total 90715.853659                       # average WriteReq miss latency
system.cpu.dcache.WriteReq_mshr_misses::.switch_cpus.data          820                       # number of WriteReq MSHR misses
system.cpu.dcache.WriteReq_mshr_misses::total          820                       # number of WriteReq MSHR misses
system.cpu.dcache.WriteReq_mshr_miss_latency::.switch_cpus.data     73567000                       # number of WriteReq MSHR miss cycles
system.cpu.dcache.WriteReq_mshr_miss_latency::total     73567000                       # number of WriteReq MSHR miss cycles
system.cpu.dcache.WriteReq_mshr_miss_rate::.switch_cpus.data     0.499391                       # mshr miss rate for WriteReq accesses
system.cpu.dcache.WriteReq_mshr_miss_rate::total     0.499391                       # mshr miss rate for WriteReq accesses
system.cpu.dcache.WriteReq_avg_mshr_miss_latency::.switch_cpus.data 89715.853659                       # average WriteReq mshr miss latency
system.cpu.dcache.WriteReq_avg_mshr_miss_latency::total 89715.853659                       # average WriteReq mshr miss latency
system.cpu.dcache.tags.pwrStateResidencyTicks::UNDEFINED 258881703233000                       # Cumulative time (in ticks) in various power states
system.cpu.dcache.tags.tagsinuse             1.656881                       # Cycle average of tags in use
system.cpu.dcache.tags.total_refs            19403426                       # Total number of references to valid blocks.
system.cpu.dcache.tags.sampled_refs          12123558                       # Sample count of references to valid blocks.
system.cpu.dcache.tags.avg_refs              1.600473                       # Average number of references to valid blocks.
system.cpu.dcache.tags.warmup_cycle      258462801546000                       # Cycle when the warmup percentage was hit.
system.cpu.dcache.tags.occ_blocks::.cpu.data     0.000002                       # Average occupied blocks per requestor
system.cpu.dcache.tags.occ_blocks::.switch_cpus.data     1.656880                       # Average occupied blocks per requestor
system.cpu.dcache.tags.occ_percent::.cpu.data     0.000000                       # Average percentage of cache occupancy
system.cpu.dcache.tags.occ_percent::.switch_cpus.data     0.001618                       # Average percentage of cache occupancy
system.cpu.dcache.tags.occ_percent::total     0.001618                       # Average percentage of cache occupancy
system.cpu.dcache.tags.occ_task_id_blocks::1024         1024                       # Occupied blocks per task id
system.cpu.dcache.tags.age_task_id_blocks_1024::0          249                       # Occupied blocks per task id
system.cpu.dcache.tags.age_task_id_blocks_1024::1          775                       # Occupied blocks per task id
system.cpu.dcache.tags.occ_task_id_percent::1024            1                       # Percentage of cache occupancy per task id
system.cpu.dcache.tags.tag_accesses          52480622                       # Number of tag accesses
system.cpu.dcache.tags.data_accesses         52480622                       # Number of data accesses

---------- End Simulation Statistics   ----------
