
---------- Begin Simulation Statistics ----------
final_tick                               572575532942500                       # Number of ticks from beginning of simulation (restored from checkpoints and never reset)
host_inst_rate                                  39348                       # Simulator instruction rate (inst/s)
host_mem_usage                                 878528                       # Number of bytes of host memory used
host_op_rate                                    88444                       # Simulator op (including micro ops) rate (op/s)
host_seconds                                   254.14                       # Real time elapsed on the host
host_tick_rate                               32343076                       # Simulator tick rate (ticks/s)
sim_freq                                 1000000000000                       # Frequency of simulated ticks
sim_insts                                    10000011                       # Number of instructions simulated
sim_ops                                      22477223                       # Number of ops (including micro ops) simulated
sim_seconds                                  0.008220                       # Number of seconds simulated
sim_ticks                                  8219688750                       # Number of ticks simulated
system.cpu.committedInsts                           8                       # Number of instructions committed
system.cpu.committedOps                            14                       # Number of ops (including micro ops) committed
system.cpu.dtb.rdAccesses                           4                       # TLB accesses on read requests
system.cpu.dtb.rdMisses                             0                       # TLB misses on read requests
system.cpu.dtb.wrAccesses                           2                       # TLB accesses on write requests
system.cpu.dtb.wrMisses                             0                       # TLB misses on write requests
system.cpu.idle_fraction                            0                       # Percentage of idle cycles
system.cpu.itb.rdAccesses                           0                       # TLB accesses on read requests
system.cpu.itb.rdMisses                             0                       # TLB misses on read requests
system.cpu.itb.wrAccesses                          14                       # TLB accesses on write requests
system.cpu.itb.wrMisses                             0                       # TLB misses on write requests
system.cpu.not_idle_fraction                        1                       # Percentage of non-idle cycles
system.cpu.numCycles                               20                       # number of cpu cycles simulated
system.cpu.numWorkItemsCompleted                    0                       # number of work items this cpu completed
system.cpu.numWorkItemsStarted                      0                       # number of work items this cpu started
system.cpu.num_busy_cycles                         20                       # Number of busy cycles
system.cpu.num_conditional_control_insts            0                       # number of instructions that are conditional controls
system.cpu.num_fp_alu_accesses                     12                       # Number of float alu accesses
system.cpu.num_fp_insts                            12                       # number of float instructions
system.cpu.num_fp_register_reads                   22                       # number of times the floating registers were read
system.cpu.num_fp_register_writes                  10                       # number of times the floating registers were written
system.cpu.num_func_calls                           0                       # number of times a function call or return occured
system.cpu.num_idle_cycles                          0                       # Number of idle cycles
system.cpu.num_int_alu_accesses                     6                       # Number of integer alu accesses
system.cpu.num_int_insts                            6                       # number of integer instructions
system.cpu.num_int_register_reads                  18                       # number of times the integer registers were read
system.cpu.num_int_register_writes                  2                       # number of times the integer registers were written
system.cpu.num_load_insts                           4                       # Number of load instructions
system.cpu.num_mem_refs                             6                       # number of memory refs
system.cpu.num_store_insts                          2                       # Number of store instructions
system.cpu.num_vec_alu_accesses                     0                       # Number of vector alu accesses
system.cpu.num_vec_insts                            0                       # number of vector instructions
system.cpu.num_vec_register_reads                   0                       # number of times the vector registers were read
system.cpu.num_vec_register_writes                  0                       # number of times the vector registers were written
system.cpu.op_class::No_OpClass                     0      0.00%      0.00% # Class of executed instruction
system.cpu.op_class::IntAlu                         4     28.57%     28.57% # Class of executed instruction
system.cpu.op_class::IntMult                        0      0.00%     28.57% # Class of executed instruction
system.cpu.op_class::IntDiv                         0      0.00%     28.57% # Class of executed instruction
system.cpu.op_class::FloatAdd                       0      0.00%     28.57% # Class of executed instruction
system.cpu.op_class::FloatCmp                       0      0.00%     28.57% # Class of executed instruction
system.cpu.op_class::FloatCvt                       0      0.00%     28.57% # Class of executed instruction
system.cpu.op_class::FloatMult                      0      0.00%     28.57% # Class of executed instruction
system.cpu.op_class::FloatMultAcc                   0      0.00%     28.57% # Class of executed instruction
system.cpu.op_class::FloatDiv                       0      0.00%     28.57% # Class of executed instruction
system.cpu.op_class::FloatMisc                      0      0.00%     28.57% # Class of executed instruction
system.cpu.op_class::FloatSqrt                      0      0.00%     28.57% # Class of executed instruction
system.cpu.op_class::SimdAdd                        0      0.00%     28.57% # Class of executed instruction
system.cpu.op_class::SimdAddAcc                     0      0.00%     28.57% # Class of executed instruction
system.cpu.op_class::SimdAlu                        0      0.00%     28.57% # Class of executed instruction
system.cpu.op_class::SimdCmp                        0      0.00%     28.57% # Class of executed instruction
system.cpu.op_class::SimdCvt                        0      0.00%     28.57% # Class of executed instruction
system.cpu.op_class::SimdMisc                       0      0.00%     28.57% # Class of executed instruction
system.cpu.op_class::SimdMult                       0      0.00%     28.57% # Class of executed instruction
system.cpu.op_class::SimdMultAcc                    0      0.00%     28.57% # Class of executed instruction
system.cpu.op_class::SimdShift                      0      0.00%     28.57% # Class of executed instruction
system.cpu.op_class::SimdShiftAcc                   0      0.00%     28.57% # Class of executed instruction
system.cpu.op_class::SimdDiv                        0      0.00%     28.57% # Class of executed instruction
system.cpu.op_class::SimdSqrt                       0      0.00%     28.57% # Class of executed instruction
system.cpu.op_class::SimdFloatAdd                   2     14.29%     42.86% # Class of executed instruction
system.cpu.op_class::SimdFloatAlu                   0      0.00%     42.86% # Class of executed instruction
system.cpu.op_class::SimdFloatCmp                   0      0.00%     42.86% # Class of executed instruction
system.cpu.op_class::SimdFloatCvt                   0      0.00%     42.86% # Class of executed instruction
system.cpu.op_class::SimdFloatDiv                   0      0.00%     42.86% # Class of executed instruction
system.cpu.op_class::SimdFloatMisc                  0      0.00%     42.86% # Class of executed instruction
system.cpu.op_class::SimdFloatMult                  2     14.29%     57.14% # Class of executed instruction
system.cpu.op_class::SimdFloatMultAcc               0      0.00%     57.14% # Class of executed instruction
system.cpu.op_class::SimdFloatSqrt                  0      0.00%     57.14% # Class of executed instruction
system.cpu.op_class::SimdReduceAdd                  0      0.00%     57.14% # Class of executed instruction
system.cpu.op_class::SimdReduceAlu                  0      0.00%     57.14% # Class of executed instruction
system.cpu.op_class::SimdReduceCmp                  0      0.00%     57.14% # Class of executed instruction
system.cpu.op_class::SimdFloatReduceAdd             0      0.00%     57.14% # Class of executed instruction
system.cpu.op_class::SimdFloatReduceCmp             0      0.00%     57.14% # Class of executed instruction
system.cpu.op_class::SimdAes                        0      0.00%     57.14% # Class of executed instruction
system.cpu.op_class::SimdAesMix                     0      0.00%     57.14% # Class of executed instruction
system.cpu.op_class::SimdSha1Hash                   0      0.00%     57.14% # Class of executed instruction
system.cpu.op_class::SimdSha1Hash2                  0      0.00%     57.14% # Class of executed instruction
system.cpu.op_class::SimdSha256Hash                 0      0.00%     57.14% # Class of executed instruction
system.cpu.op_class::SimdSha256Hash2                0      0.00%     57.14% # Class of executed instruction
system.cpu.op_class::SimdShaSigma2                  0      0.00%     57.14% # Class of executed instruction
system.cpu.op_class::SimdShaSigma3                  0      0.00%     57.14% # Class of executed instruction
system.cpu.op_class::SimdPredAlu                    0      0.00%     57.14% # Class of executed instruction
system.cpu.op_class::MemRead                        2     14.29%     71.43% # Class of executed instruction
system.cpu.op_class::MemWrite                       0      0.00%     71.43% # Class of executed instruction
system.cpu.op_class::FloatMemRead                   2     14.29%     85.71% # Class of executed instruction
system.cpu.op_class::FloatMemWrite                  2     14.29%    100.00% # Class of executed instruction
system.cpu.op_class::IprAccess                      0      0.00%    100.00% # Class of executed instruction
system.cpu.op_class::InstPrefetch                   0      0.00%    100.00% # Class of executed instruction
system.cpu.op_class::total                         14                       # Class of executed instruction
system.cpu.workload.numSyscalls                     0                       # Number of system calls
system.membus.snoop_filter.hit_multi_requests            0                       # Number of requests hitting in the snoop filter with multiple (>1) holders of the requested data.
system.membus.snoop_filter.hit_multi_snoops            0                       # Number of snoops hitting in the snoop filter with multiple (>1) holders of the requested data.
system.membus.snoop_filter.hit_single_requests       100690                       # Number of requests hitting in the snoop filter with a single holder of the requested data.
system.membus.snoop_filter.hit_single_snoops            0                       # Number of snoops hitting in the snoop filter with a single holder of the requested data.
system.membus.snoop_filter.tot_requests        203797                       # Total number of requests made to the snoop filter.
system.membus.snoop_filter.tot_snoops               0                       # Total number of snoops made to the snoop filter.
system.switch_cpus.branchPred.BTBCorrect            0                       # Number of correct BTB predictions (this stat may not work properly.
system.switch_cpus.branchPred.BTBHitPct      0.000000                       # BTB Hit Percentage
system.switch_cpus.branchPred.BTBHits               0                       # Number of BTB hits
system.switch_cpus.branchPred.BTBLookups        35125                       # Number of BTB lookups
system.switch_cpus.branchPred.RASInCorrect            0                       # Number of incorrect RAS predictions.
system.switch_cpus.branchPred.condIncorrect          807                       # Number of conditional branches incorrect
system.switch_cpus.branchPred.condPredicted        40223                       # Number of conditional branches predicted
system.switch_cpus.branchPred.indirectHits        28154                       # Number of indirect target hits.
system.switch_cpus.branchPred.indirectLookups        35125                       # Number of indirect predictor lookups.
system.switch_cpus.branchPred.indirectMisses         6971                       # Number of indirect misses.
system.switch_cpus.branchPred.lookups           45721                       # Number of BP lookups
system.switch_cpus.branchPred.usedRAS            5126                       # Number of times the RAS was used to get a target.
system.switch_cpus.branchPredindirectMispredicted           60                       # Number of mispredicted indirect branches.
system.switch_cpus.cc_regfile_reads            196480                       # number of cc regfile reads
system.switch_cpus.cc_regfile_writes           329202                       # number of cc regfile writes
system.switch_cpus.commit.amos                      0                       # Number of atomic instructions committed
system.switch_cpus.commit.branchMispredicts          807                       # The number of times a branch was mispredicted
system.switch_cpus.commit.branches              19425                       # Number of branches committed
system.switch_cpus.commit.bw_lim_events       1559043                       # number cycles where commit BW limit reached
system.switch_cpus.commit.commitNonSpecStalls          320                       # The number of times commit has been forced to stall to communicate backwards
system.switch_cpus.commit.commitSquashedInsts       469025                       # The number of squashed insts skipped by commit
system.switch_cpus.commit.committedInsts     10000003                       # Number of instructions committed
system.switch_cpus.commit.committedOps       22477209                       # Number of ops (including micro ops) committed
system.switch_cpus.commit.committed_per_cycle::samples     16344725                       # Number of insts commited each cycle
system.switch_cpus.commit.committed_per_cycle::mean     1.375197                       # Number of insts commited each cycle
system.switch_cpus.commit.committed_per_cycle::stdev     2.619557                       # Number of insts commited each cycle
system.switch_cpus.commit.committed_per_cycle::underflows            0      0.00%      0.00% # Number of insts commited each cycle
system.switch_cpus.commit.committed_per_cycle::0     11679126     71.46%     71.46% # Number of insts commited each cycle
system.switch_cpus.commit.committed_per_cycle::1       673324      4.12%     75.57% # Number of insts commited each cycle
system.switch_cpus.commit.committed_per_cycle::2       825211      5.05%     80.62% # Number of insts commited each cycle
system.switch_cpus.commit.committed_per_cycle::3       258948      1.58%     82.21% # Number of insts commited each cycle
system.switch_cpus.commit.committed_per_cycle::4       561344      3.43%     85.64% # Number of insts commited each cycle
system.switch_cpus.commit.committed_per_cycle::5       261673      1.60%     87.24% # Number of insts commited each cycle
system.switch_cpus.commit.committed_per_cycle::6       331858      2.03%     89.27% # Number of insts commited each cycle
system.switch_cpus.commit.committed_per_cycle::7       194198      1.19%     90.46% # Number of insts commited each cycle
system.switch_cpus.commit.committed_per_cycle::8      1559043      9.54%    100.00% # Number of insts commited each cycle
system.switch_cpus.commit.committed_per_cycle::overflows            0      0.00%    100.00% # Number of insts commited each cycle
system.switch_cpus.commit.committed_per_cycle::min_value            0                       # Number of insts commited each cycle
system.switch_cpus.commit.committed_per_cycle::max_value            8                       # Number of insts commited each cycle
system.switch_cpus.commit.committed_per_cycle::total     16344725                       # Number of insts commited each cycle
system.switch_cpus.commit.fp_insts           21302588                       # Number of committed floating point instructions.
system.switch_cpus.commit.function_calls          320                       # Number of function calls committed.
system.switch_cpus.commit.int_insts          10363628                       # Number of committed integer instructions.
system.switch_cpus.commit.loads               7651059                       # Number of loads committed
system.switch_cpus.commit.membars                   0                       # Number of memory barriers committed
system.switch_cpus.commit.op_class_0::No_OpClass          637      0.00%      0.00% # Class of committed instruction
system.switch_cpus.commit.op_class_0::IntAlu      3034818     13.50%     13.50% # Class of committed instruction
system.switch_cpus.commit.op_class_0::IntMult          658      0.00%     13.51% # Class of committed instruction
system.switch_cpus.commit.op_class_0::IntDiv            0      0.00%     13.51% # Class of committed instruction
system.switch_cpus.commit.op_class_0::FloatAdd          328      0.00%     13.51% # Class of committed instruction
system.switch_cpus.commit.op_class_0::FloatCmp            0      0.00%     13.51% # Class of committed instruction
system.switch_cpus.commit.op_class_0::FloatCvt            0      0.00%     13.51% # Class of committed instruction
system.switch_cpus.commit.op_class_0::FloatMult            0      0.00%     13.51% # Class of committed instruction
system.switch_cpus.commit.op_class_0::FloatMultAcc            0      0.00%     13.51% # Class of committed instruction
system.switch_cpus.commit.op_class_0::FloatDiv            0      0.00%     13.51% # Class of committed instruction
system.switch_cpus.commit.op_class_0::FloatMisc            0      0.00%     13.51% # Class of committed instruction
system.switch_cpus.commit.op_class_0::FloatSqrt            0      0.00%     13.51% # Class of committed instruction
system.switch_cpus.commit.op_class_0::SimdAdd            0      0.00%     13.51% # Class of committed instruction
system.switch_cpus.commit.op_class_0::SimdAddAcc            0      0.00%     13.51% # Class of committed instruction
system.switch_cpus.commit.op_class_0::SimdAlu        47722      0.21%     13.72% # Class of committed instruction
system.switch_cpus.commit.op_class_0::SimdCmp            0      0.00%     13.72% # Class of committed instruction
system.switch_cpus.commit.op_class_0::SimdCvt            0      0.00%     13.72% # Class of committed instruction
system.switch_cpus.commit.op_class_0::SimdMisc            0      0.00%     13.72% # Class of committed instruction
system.switch_cpus.commit.op_class_0::SimdMult            0      0.00%     13.72% # Class of committed instruction
system.switch_cpus.commit.op_class_0::SimdMultAcc            0      0.00%     13.72% # Class of committed instruction
system.switch_cpus.commit.op_class_0::SimdShift            0      0.00%     13.72% # Class of committed instruction
system.switch_cpus.commit.op_class_0::SimdShiftAcc            0      0.00%     13.72% # Class of committed instruction
system.switch_cpus.commit.op_class_0::SimdDiv            0      0.00%     13.72% # Class of committed instruction
system.switch_cpus.commit.op_class_0::SimdSqrt            0      0.00%     13.72% # Class of committed instruction
system.switch_cpus.commit.op_class_0::SimdFloatAdd      5476750     24.37%     38.09% # Class of committed instruction
system.switch_cpus.commit.op_class_0::SimdFloatAlu            0      0.00%     38.09% # Class of committed instruction
system.switch_cpus.commit.op_class_0::SimdFloatCmp            0      0.00%     38.09% # Class of committed instruction
system.switch_cpus.commit.op_class_0::SimdFloatCvt            0      0.00%     38.09% # Class of committed instruction
system.switch_cpus.commit.op_class_0::SimdFloatDiv        11440      0.05%     38.14% # Class of committed instruction
system.switch_cpus.commit.op_class_0::SimdFloatMisc            0      0.00%     38.14% # Class of committed instruction
system.switch_cpus.commit.op_class_0::SimdFloatMult      4002198     17.81%     55.94% # Class of committed instruction
system.switch_cpus.commit.op_class_0::SimdFloatMultAcc            0      0.00%     55.94% # Class of committed instruction
system.switch_cpus.commit.op_class_0::SimdFloatSqrt            0      0.00%     55.94% # Class of committed instruction
system.switch_cpus.commit.op_class_0::SimdReduceAdd            0      0.00%     55.94% # Class of committed instruction
system.switch_cpus.commit.op_class_0::SimdReduceAlu            0      0.00%     55.94% # Class of committed instruction
system.switch_cpus.commit.op_class_0::SimdReduceCmp            0      0.00%     55.94% # Class of committed instruction
system.switch_cpus.commit.op_class_0::SimdFloatReduceAdd            0      0.00%     55.94% # Class of committed instruction
system.switch_cpus.commit.op_class_0::SimdFloatReduceCmp            0      0.00%     55.94% # Class of committed instruction
system.switch_cpus.commit.op_class_0::SimdAes            0      0.00%     55.94% # Class of committed instruction
system.switch_cpus.commit.op_class_0::SimdAesMix            0      0.00%     55.94% # Class of committed instruction
system.switch_cpus.commit.op_class_0::SimdSha1Hash            0      0.00%     55.94% # Class of committed instruction
system.switch_cpus.commit.op_class_0::SimdSha1Hash2            0      0.00%     55.94% # Class of committed instruction
system.switch_cpus.commit.op_class_0::SimdSha256Hash            0      0.00%     55.94% # Class of committed instruction
system.switch_cpus.commit.op_class_0::SimdSha256Hash2            0      0.00%     55.94% # Class of committed instruction
system.switch_cpus.commit.op_class_0::SimdShaSigma2            0      0.00%     55.94% # Class of committed instruction
system.switch_cpus.commit.op_class_0::SimdShaSigma3            0      0.00%     55.94% # Class of committed instruction
system.switch_cpus.commit.op_class_0::SimdPredAlu            0      0.00%     55.94% # Class of committed instruction
system.switch_cpus.commit.op_class_0::MemRead       657061      2.92%     58.87% # Class of committed instruction
system.switch_cpus.commit.op_class_0::MemWrite        55633      0.25%     59.11% # Class of committed instruction
system.switch_cpus.commit.op_class_0::FloatMemRead      6993998     31.12%     90.23% # Class of committed instruction
system.switch_cpus.commit.op_class_0::FloatMemWrite      2195966      9.77%    100.00% # Class of committed instruction
system.switch_cpus.commit.op_class_0::IprAccess            0      0.00%    100.00% # Class of committed instruction
system.switch_cpus.commit.op_class_0::InstPrefetch            0      0.00%    100.00% # Class of committed instruction
system.switch_cpus.commit.op_class_0::total     22477209                       # Class of committed instruction
system.switch_cpus.commit.refs                9902658                       # Number of memory references committed
system.switch_cpus.commit.swp_count                 0                       # Number of s/w prefetches committed
system.switch_cpus.commit.vec_insts                 0                       # Number of committed Vector instructions.
system.switch_cpus.committedInsts            10000003                       # Number of Instructions Simulated
system.switch_cpus.committedOps              22477209                       # Number of Ops (including micro ops) Simulated
system.switch_cpus.cpi                       1.643935                       # CPI: Cycles Per Instruction
system.switch_cpus.cpi_total                 1.643935                       # CPI: Total CPI of All Threads
system.switch_cpus.decode.BlockedCycles      12539508                       # Number of cycles decode is blocked
system.switch_cpus.decode.DecodedInsts       23108702                       # Number of instructions handled by decode
system.switch_cpus.decode.IdleCycles           756829                       # Number of cycles decode is idle
system.switch_cpus.decode.RunCycles           2490027                       # Number of cycles decode is running
system.switch_cpus.decode.SquashCycles           6083                       # Number of cycles decode is squashing
system.switch_cpus.decode.UnblockCycles        613806                       # Number of cycles decode is unblocking
system.switch_cpus.dtb.rdAccesses             7786218                       # TLB accesses on read requests
system.switch_cpus.dtb.rdMisses                  1499                       # TLB misses on read requests
system.switch_cpus.dtb.wrAccesses             2367922                       # TLB accesses on write requests
system.switch_cpus.dtb.wrMisses                   572                       # TLB misses on write requests
system.switch_cpus.fetch.Branches               45721                       # Number of branches that fetch encountered
system.switch_cpus.fetch.CacheLines           1084084                       # Number of cache lines fetched
system.switch_cpus.fetch.Cycles              15287681                       # Number of cycles fetch has run and was not squashing or blocked
system.switch_cpus.fetch.IcacheSquashes           110                       # Number of outstanding Icache misses that were squashed
system.switch_cpus.fetch.Insts               10473850                       # Number of instructions fetch has processed
system.switch_cpus.fetch.SquashCycles           12166                       # Number of cycles fetch has spent squashing
system.switch_cpus.fetch.branchRate          0.002781                       # Number of branch fetches per cycle
system.switch_cpus.fetch.icacheStallCycles      1112609                       # Number of cycles fetch is stalled on an Icache miss
system.switch_cpus.fetch.predictedBranches        33280                       # Number of branches that fetch has predicted taken
system.switch_cpus.fetch.rate                0.637120                       # Number of inst fetches per cycle
system.switch_cpus.fetch.rateDist::samples     16406373                       # Number of instructions fetched each cycle (Total)
system.switch_cpus.fetch.rateDist::mean      1.420503                       # Number of instructions fetched each cycle (Total)
system.switch_cpus.fetch.rateDist::stdev     2.914853                       # Number of instructions fetched each cycle (Total)
system.switch_cpus.fetch.rateDist::underflows            0      0.00%      0.00% # Number of instructions fetched each cycle (Total)
system.switch_cpus.fetch.rateDist::0         12928984     78.80%     78.80% # Number of instructions fetched each cycle (Total)
system.switch_cpus.fetch.rateDist::1           104688      0.64%     79.44% # Number of instructions fetched each cycle (Total)
system.switch_cpus.fetch.rateDist::2           214588      1.31%     80.75% # Number of instructions fetched each cycle (Total)
system.switch_cpus.fetch.rateDist::3           171683      1.05%     81.80% # Number of instructions fetched each cycle (Total)
system.switch_cpus.fetch.rateDist::4           175691      1.07%     82.87% # Number of instructions fetched each cycle (Total)
system.switch_cpus.fetch.rateDist::5           139574      0.85%     83.72% # Number of instructions fetched each cycle (Total)
system.switch_cpus.fetch.rateDist::6           220056      1.34%     85.06% # Number of instructions fetched each cycle (Total)
system.switch_cpus.fetch.rateDist::7            73450      0.45%     85.51% # Number of instructions fetched each cycle (Total)
system.switch_cpus.fetch.rateDist::8          2377659     14.49%    100.00% # Number of instructions fetched each cycle (Total)
system.switch_cpus.fetch.rateDist::overflows            0      0.00%    100.00% # Number of instructions fetched each cycle (Total)
system.switch_cpus.fetch.rateDist::min_value            0                       # Number of instructions fetched each cycle (Total)
system.switch_cpus.fetch.rateDist::max_value            8                       # Number of instructions fetched each cycle (Total)
system.switch_cpus.fetch.rateDist::total     16406373                       # Number of instructions fetched each cycle (Total)
system.switch_cpus.fp_regfile_reads          35989712                       # number of floating regfile reads
system.switch_cpus.fp_regfile_writes         19173371                       # number of floating regfile writes
system.switch_cpus.idleCycles                   32984                       # Total number of cycles that the CPU has spent unscheduled due to idling
system.switch_cpus.iew.branchMispredicts          839                       # Number of branch mispredicts detected at execute
system.switch_cpus.iew.exec_branches            37005                       # Number of branches executed
system.switch_cpus.iew.exec_nop                     0                       # number of nop insts executed
system.switch_cpus.iew.exec_rate             1.406235                       # Inst execution rate
system.switch_cpus.iew.exec_refs             10300130                       # number of memory reference insts executed
system.switch_cpus.iew.exec_stores            2367922                       # Number of stores executed
system.switch_cpus.iew.exec_swp                     0                       # number of swp insts executed
system.switch_cpus.iew.iewBlockCycles          397358                       # Number of cycles IEW is blocking
system.switch_cpus.iew.iewDispLoadInsts       7789748                       # Number of dispatched load instructions
system.switch_cpus.iew.iewDispNonSpecInsts            0                       # Number of dispatched non-speculative instructions
system.switch_cpus.iew.iewDispSquashedInsts            3                       # Number of squashed instructions skipped by dispatch
system.switch_cpus.iew.iewDispStoreInsts      2418988                       # Number of dispatched store instructions
system.switch_cpus.iew.iewDispatchedInsts     23042480                       # Number of instructions dispatched to IQ
system.switch_cpus.iew.iewExecLoadInsts       7932208                       # Number of load instructions executed
system.switch_cpus.iew.iewExecSquashedInsts         4668                       # Number of squashed instructions skipped in execute
system.switch_cpus.iew.iewExecutedInsts      23117601                       # Number of executed instructions
system.switch_cpus.iew.iewIQFullEvents           3866                       # Number of times the IQ has become full, causing a stall
system.switch_cpus.iew.iewIdleCycles                0                       # Number of cycles IEW is idle
system.switch_cpus.iew.iewLSQFullEvents       3907869                       # Number of times the LSQ has become full, causing a stall
system.switch_cpus.iew.iewSquashCycles           6083                       # Number of cycles IEW is squashing
system.switch_cpus.iew.iewUnblockCycles       3917683                       # Number of cycles IEW is unblocking
system.switch_cpus.iew.lsq.thread0.blockedLoads            0                       # Number of blocked loads due to partial load-store forwarding
system.switch_cpus.iew.lsq.thread0.cacheBlocked        27143                       # Number of times an access to memory failed due to the cache being blocked
system.switch_cpus.iew.lsq.thread0.forwLoads       567384                       # Number of loads that had data forwarded from stores
system.switch_cpus.iew.lsq.thread0.ignoredResponses            9                       # Number of memory responses ignored because the instruction is squashed
system.switch_cpus.iew.lsq.thread0.invAddrLoads            0                       # Number of loads ignored due to an invalid address
system.switch_cpus.iew.lsq.thread0.invAddrSwpfs            0                       # Number of software prefetches ignored due to an invalid address
system.switch_cpus.iew.lsq.thread0.memOrderViolation          243                       # Number of memory ordering violations
system.switch_cpus.iew.lsq.thread0.rescheduledLoads            0                       # Number of loads that were rescheduled
system.switch_cpus.iew.lsq.thread0.squashedLoads       138661                       # Number of loads squashed
system.switch_cpus.iew.lsq.thread0.squashedStores       167379                       # Number of stores squashed
system.switch_cpus.iew.memOrderViolationEvents          243                       # Number of memory order violations
system.switch_cpus.iew.predictedNotTakenIncorrect          148                       # Number of branches that were predicted not taken incorrectly
system.switch_cpus.iew.predictedTakenIncorrect          691                       # Number of branches that were predicted taken incorrectly
system.switch_cpus.iew.wb_consumers          28905418                       # num instructions consuming a value
system.switch_cpus.iew.wb_count              22920993                       # cumulative count of insts written-back
system.switch_cpus.iew.wb_fanout             0.606090                       # average fanout of values written-back
system.switch_cpus.iew.wb_producers          17519296                       # num instructions producing a value
system.switch_cpus.iew.wb_rate               1.394276                       # insts written-back per cycle
system.switch_cpus.iew.wb_sent               22964001                       # cumulative count of insts sent to commit
system.switch_cpus.int_regfile_reads         21273303                       # number of integer regfile reads
system.switch_cpus.int_regfile_writes         1345043                       # number of integer regfile writes
system.switch_cpus.ipc                       0.608296                       # IPC: Instructions Per Cycle
system.switch_cpus.ipc_total                 0.608296                       # IPC: Total IPC of All Threads
system.switch_cpus.iq.FU_type_0::No_OpClass        41136      0.18%      0.18% # Type of FU issued
system.switch_cpus.iq.FU_type_0::IntAlu       3237398     14.00%     14.18% # Type of FU issued
system.switch_cpus.iq.FU_type_0::IntMult          658      0.00%     14.18% # Type of FU issued
system.switch_cpus.iq.FU_type_0::IntDiv             0      0.00%     14.18% # Type of FU issued
system.switch_cpus.iq.FU_type_0::FloatAdd         2690      0.01%     14.19% # Type of FU issued
system.switch_cpus.iq.FU_type_0::FloatCmp            0      0.00%     14.19% # Type of FU issued
system.switch_cpus.iq.FU_type_0::FloatCvt            0      0.00%     14.19% # Type of FU issued
system.switch_cpus.iq.FU_type_0::FloatMult            0      0.00%     14.19% # Type of FU issued
system.switch_cpus.iq.FU_type_0::FloatMultAcc            0      0.00%     14.19% # Type of FU issued
system.switch_cpus.iq.FU_type_0::FloatDiv            0      0.00%     14.19% # Type of FU issued
system.switch_cpus.iq.FU_type_0::FloatMisc            0      0.00%     14.19% # Type of FU issued
system.switch_cpus.iq.FU_type_0::FloatSqrt            0      0.00%     14.19% # Type of FU issued
system.switch_cpus.iq.FU_type_0::SimdAdd            0      0.00%     14.19% # Type of FU issued
system.switch_cpus.iq.FU_type_0::SimdAddAcc            0      0.00%     14.19% # Type of FU issued
system.switch_cpus.iq.FU_type_0::SimdAlu        47747      0.21%     14.40% # Type of FU issued
system.switch_cpus.iq.FU_type_0::SimdCmp            0      0.00%     14.40% # Type of FU issued
system.switch_cpus.iq.FU_type_0::SimdCvt            0      0.00%     14.40% # Type of FU issued
system.switch_cpus.iq.FU_type_0::SimdMisc            0      0.00%     14.40% # Type of FU issued
system.switch_cpus.iq.FU_type_0::SimdMult            0      0.00%     14.40% # Type of FU issued
system.switch_cpus.iq.FU_type_0::SimdMultAcc            0      0.00%     14.40% # Type of FU issued
system.switch_cpus.iq.FU_type_0::SimdShift            0      0.00%     14.40% # Type of FU issued
system.switch_cpus.iq.FU_type_0::SimdShiftAcc            0      0.00%     14.40% # Type of FU issued
system.switch_cpus.iq.FU_type_0::SimdDiv            0      0.00%     14.40% # Type of FU issued
system.switch_cpus.iq.FU_type_0::SimdSqrt            0      0.00%     14.40% # Type of FU issued
system.switch_cpus.iq.FU_type_0::SimdFloatAdd      5477020     23.69%     38.09% # Type of FU issued
system.switch_cpus.iq.FU_type_0::SimdFloatAlu            0      0.00%     38.09% # Type of FU issued
system.switch_cpus.iq.FU_type_0::SimdFloatCmp            0      0.00%     38.09% # Type of FU issued
system.switch_cpus.iq.FU_type_0::SimdFloatCvt            0      0.00%     38.09% # Type of FU issued
system.switch_cpus.iq.FU_type_0::SimdFloatDiv        11440      0.05%     38.14% # Type of FU issued
system.switch_cpus.iq.FU_type_0::SimdFloatMisc            0      0.00%     38.14% # Type of FU issued
system.switch_cpus.iq.FU_type_0::SimdFloatMult      4002316     17.31%     55.45% # Type of FU issued
system.switch_cpus.iq.FU_type_0::SimdFloatMultAcc            0      0.00%     55.45% # Type of FU issued
system.switch_cpus.iq.FU_type_0::SimdFloatSqrt            0      0.00%     55.45% # Type of FU issued
system.switch_cpus.iq.FU_type_0::SimdReduceAdd            0      0.00%     55.45% # Type of FU issued
system.switch_cpus.iq.FU_type_0::SimdReduceAlu            0      0.00%     55.45% # Type of FU issued
system.switch_cpus.iq.FU_type_0::SimdReduceCmp            0      0.00%     55.45% # Type of FU issued
system.switch_cpus.iq.FU_type_0::SimdFloatReduceAdd            0      0.00%     55.45% # Type of FU issued
system.switch_cpus.iq.FU_type_0::SimdFloatReduceCmp            0      0.00%     55.45% # Type of FU issued
system.switch_cpus.iq.FU_type_0::SimdAes            0      0.00%     55.45% # Type of FU issued
system.switch_cpus.iq.FU_type_0::SimdAesMix            0      0.00%     55.45% # Type of FU issued
system.switch_cpus.iq.FU_type_0::SimdSha1Hash            0      0.00%     55.45% # Type of FU issued
system.switch_cpus.iq.FU_type_0::SimdSha1Hash2            0      0.00%     55.45% # Type of FU issued
system.switch_cpus.iq.FU_type_0::SimdSha256Hash            0      0.00%     55.45% # Type of FU issued
system.switch_cpus.iq.FU_type_0::SimdSha256Hash2            0      0.00%     55.45% # Type of FU issued
system.switch_cpus.iq.FU_type_0::SimdShaSigma2            0      0.00%     55.45% # Type of FU issued
system.switch_cpus.iq.FU_type_0::SimdShaSigma3            0      0.00%     55.45% # Type of FU issued
system.switch_cpus.iq.FU_type_0::SimdPredAlu            0      0.00%     55.45% # Type of FU issued
system.switch_cpus.iq.FU_type_0::MemRead       760411      3.29%     58.73% # Type of FU issued
system.switch_cpus.iq.FU_type_0::MemWrite        94607      0.41%     59.14% # Type of FU issued
system.switch_cpus.iq.FU_type_0::FloatMemRead      7173389     31.02%     90.17% # Type of FU issued
system.switch_cpus.iq.FU_type_0::FloatMemWrite      2273462      9.83%    100.00% # Type of FU issued
system.switch_cpus.iq.FU_type_0::IprAccess            0      0.00%    100.00% # Type of FU issued
system.switch_cpus.iq.FU_type_0::InstPrefetch            0      0.00%    100.00% # Type of FU issued
system.switch_cpus.iq.FU_type_0::total       23122274                       # Type of FU issued
system.switch_cpus.iq.fp_alu_accesses        22499992                       # Number of floating point alu accesses
system.switch_cpus.iq.fp_inst_queue_reads     44062688                       # Number of floating instruction queue reads
system.switch_cpus.iq.fp_inst_queue_wakeup_accesses     21445021                       # Number of floating instruction queue wakeup accesses
system.switch_cpus.iq.fp_inst_queue_writes     21671407                       # Number of floating instruction queue writes
system.switch_cpus.iq.fu_busy_cnt             1038439                       # FU busy when requested
system.switch_cpus.iq.fu_busy_rate           0.044911                       # FU busy rate (busy events/executed inst)
system.switch_cpus.iq.fu_full::No_OpClass            0      0.00%      0.00% # attempts to use FU when none available
system.switch_cpus.iq.fu_full::IntAlu             409      0.04%      0.04% # attempts to use FU when none available
system.switch_cpus.iq.fu_full::IntMult              0      0.00%      0.04% # attempts to use FU when none available
system.switch_cpus.iq.fu_full::IntDiv               0      0.00%      0.04% # attempts to use FU when none available
system.switch_cpus.iq.fu_full::FloatAdd             0      0.00%      0.04% # attempts to use FU when none available
system.switch_cpus.iq.fu_full::FloatCmp             0      0.00%      0.04% # attempts to use FU when none available
system.switch_cpus.iq.fu_full::FloatCvt             0      0.00%      0.04% # attempts to use FU when none available
system.switch_cpus.iq.fu_full::FloatMult            0      0.00%      0.04% # attempts to use FU when none available
system.switch_cpus.iq.fu_full::FloatMultAcc            0      0.00%      0.04% # attempts to use FU when none available
system.switch_cpus.iq.fu_full::FloatDiv             0      0.00%      0.04% # attempts to use FU when none available
system.switch_cpus.iq.fu_full::FloatMisc            0      0.00%      0.04% # attempts to use FU when none available
system.switch_cpus.iq.fu_full::FloatSqrt            0      0.00%      0.04% # attempts to use FU when none available
system.switch_cpus.iq.fu_full::SimdAdd              0      0.00%      0.04% # attempts to use FU when none available
system.switch_cpus.iq.fu_full::SimdAddAcc            0      0.00%      0.04% # attempts to use FU when none available
system.switch_cpus.iq.fu_full::SimdAlu              0      0.00%      0.04% # attempts to use FU when none available
system.switch_cpus.iq.fu_full::SimdCmp              0      0.00%      0.04% # attempts to use FU when none available
system.switch_cpus.iq.fu_full::SimdCvt              0      0.00%      0.04% # attempts to use FU when none available
system.switch_cpus.iq.fu_full::SimdMisc             0      0.00%      0.04% # attempts to use FU when none available
system.switch_cpus.iq.fu_full::SimdMult             0      0.00%      0.04% # attempts to use FU when none available
system.switch_cpus.iq.fu_full::SimdMultAcc            0      0.00%      0.04% # attempts to use FU when none available
system.switch_cpus.iq.fu_full::SimdShift            0      0.00%      0.04% # attempts to use FU when none available
system.switch_cpus.iq.fu_full::SimdShiftAcc            0      0.00%      0.04% # attempts to use FU when none available
system.switch_cpus.iq.fu_full::SimdDiv              0      0.00%      0.04% # attempts to use FU when none available
system.switch_cpus.iq.fu_full::SimdSqrt             0      0.00%      0.04% # attempts to use FU when none available
system.switch_cpus.iq.fu_full::SimdFloatAdd       121588     11.71%     11.75% # attempts to use FU when none available
system.switch_cpus.iq.fu_full::SimdFloatAlu            0      0.00%     11.75% # attempts to use FU when none available
system.switch_cpus.iq.fu_full::SimdFloatCmp            0      0.00%     11.75% # attempts to use FU when none available
system.switch_cpus.iq.fu_full::SimdFloatCvt            0      0.00%     11.75% # attempts to use FU when none available
system.switch_cpus.iq.fu_full::SimdFloatDiv            0      0.00%     11.75% # attempts to use FU when none available
system.switch_cpus.iq.fu_full::SimdFloatMisc            0      0.00%     11.75% # attempts to use FU when none available
system.switch_cpus.iq.fu_full::SimdFloatMult       260589     25.09%     36.84% # attempts to use FU when none available
system.switch_cpus.iq.fu_full::SimdFloatMultAcc            0      0.00%     36.84% # attempts to use FU when none available
system.switch_cpus.iq.fu_full::SimdFloatSqrt            0      0.00%     36.84% # attempts to use FU when none available
system.switch_cpus.iq.fu_full::SimdReduceAdd            0      0.00%     36.84% # attempts to use FU when none available
system.switch_cpus.iq.fu_full::SimdReduceAlu            0      0.00%     36.84% # attempts to use FU when none available
system.switch_cpus.iq.fu_full::SimdReduceCmp            0      0.00%     36.84% # attempts to use FU when none available
system.switch_cpus.iq.fu_full::SimdFloatReduceAdd            0      0.00%     36.84% # attempts to use FU when none available
system.switch_cpus.iq.fu_full::SimdFloatReduceCmp            0      0.00%     36.84% # attempts to use FU when none available
system.switch_cpus.iq.fu_full::SimdAes              0      0.00%     36.84% # attempts to use FU when none available
system.switch_cpus.iq.fu_full::SimdAesMix            0      0.00%     36.84% # attempts to use FU when none available
system.switch_cpus.iq.fu_full::SimdSha1Hash            0      0.00%     36.84% # attempts to use FU when none available
system.switch_cpus.iq.fu_full::SimdSha1Hash2            0      0.00%     36.84% # attempts to use FU when none available
system.switch_cpus.iq.fu_full::SimdSha256Hash            0      0.00%     36.84% # attempts to use FU when none available
system.switch_cpus.iq.fu_full::SimdSha256Hash2            0      0.00%     36.84% # attempts to use FU when none available
system.switch_cpus.iq.fu_full::SimdShaSigma2            0      0.00%     36.84% # attempts to use FU when none available
system.switch_cpus.iq.fu_full::SimdShaSigma3            0      0.00%     36.84% # attempts to use FU when none available
system.switch_cpus.iq.fu_full::SimdPredAlu            0      0.00%     36.84% # attempts to use FU when none available
system.switch_cpus.iq.fu_full::MemRead          88721      8.54%     45.39% # attempts to use FU when none available
system.switch_cpus.iq.fu_full::MemWrite         11670      1.12%     46.51% # attempts to use FU when none available
system.switch_cpus.iq.fu_full::FloatMemRead       497693     47.93%     94.44% # attempts to use FU when none available
system.switch_cpus.iq.fu_full::FloatMemWrite        57769      5.56%    100.00% # attempts to use FU when none available
system.switch_cpus.iq.fu_full::IprAccess            0      0.00%    100.00% # attempts to use FU when none available
system.switch_cpus.iq.fu_full::InstPrefetch            0      0.00%    100.00% # attempts to use FU when none available
system.switch_cpus.iq.int_alu_accesses        1619585                       # Number of integer alu accesses
system.switch_cpus.iq.int_inst_queue_reads     19627104                       # Number of integer instruction queue reads
system.switch_cpus.iq.int_inst_queue_wakeup_accesses      1475972                       # Number of integer instruction queue wakeup accesses
system.switch_cpus.iq.int_inst_queue_writes      1936507                       # Number of integer instruction queue writes
system.switch_cpus.iq.iqInstsAdded           23038621                       # Number of instructions added to the IQ (excludes non-spec)
system.switch_cpus.iq.iqInstsIssued          23122274                       # Number of instructions issued
system.switch_cpus.iq.iqNonSpecInstsAdded         3859                       # Number of non-speculative instructions added to the IQ
system.switch_cpus.iq.iqSquashedInstsExamined       565191                       # Number of squashed instructions iterated over during squash; mainly for profiling
system.switch_cpus.iq.iqSquashedInstsIssued          437                       # Number of squashed instructions issued
system.switch_cpus.iq.iqSquashedNonSpecRemoved         3539                       # Number of squashed non-spec instructions that were removed
system.switch_cpus.iq.iqSquashedOperandsExamined       271015                       # Number of squashed operands that are examined and possibly removed from graph
system.switch_cpus.iq.issued_per_cycle::samples     16406373                       # Number of insts issued each cycle
system.switch_cpus.iq.issued_per_cycle::mean     1.409347                       # Number of insts issued each cycle
system.switch_cpus.iq.issued_per_cycle::stdev     2.367625                       # Number of insts issued each cycle
system.switch_cpus.iq.issued_per_cycle::underflows            0      0.00%      0.00% # Number of insts issued each cycle
system.switch_cpus.iq.issued_per_cycle::0     11014273     67.13%     67.13% # Number of insts issued each cycle
system.switch_cpus.iq.issued_per_cycle::1       688395      4.20%     71.33% # Number of insts issued each cycle
system.switch_cpus.iq.issued_per_cycle::2       711629      4.34%     75.67% # Number of insts issued each cycle
system.switch_cpus.iq.issued_per_cycle::3       649769      3.96%     79.63% # Number of insts issued each cycle
system.switch_cpus.iq.issued_per_cycle::4       892368      5.44%     85.07% # Number of insts issued each cycle
system.switch_cpus.iq.issued_per_cycle::5       695305      4.24%     89.31% # Number of insts issued each cycle
system.switch_cpus.iq.issued_per_cycle::6       771021      4.70%     94.00% # Number of insts issued each cycle
system.switch_cpus.iq.issued_per_cycle::7       479713      2.92%     96.93% # Number of insts issued each cycle
system.switch_cpus.iq.issued_per_cycle::8       503900      3.07%    100.00% # Number of insts issued each cycle
system.switch_cpus.iq.issued_per_cycle::overflows            0      0.00%    100.00% # Number of insts issued each cycle
system.switch_cpus.iq.issued_per_cycle::min_value            0                       # Number of insts issued each cycle
system.switch_cpus.iq.issued_per_cycle::max_value            8                       # Number of insts issued each cycle
system.switch_cpus.iq.issued_per_cycle::total     16406373                       # Number of insts issued each cycle
system.switch_cpus.iq.rate                   1.406519                       # Inst issue rate
system.switch_cpus.iq.vec_alu_accesses              0                       # Number of vector alu accesses
system.switch_cpus.iq.vec_inst_queue_reads            0                       # Number of vector instruction queue reads
system.switch_cpus.iq.vec_inst_queue_wakeup_accesses            0                       # Number of vector instruction queue wakeup accesses
system.switch_cpus.iq.vec_inst_queue_writes            0                       # Number of vector instruction queue writes
system.switch_cpus.itb.rdAccesses                   0                       # TLB accesses on read requests
system.switch_cpus.itb.rdMisses                     0                       # TLB misses on read requests
system.switch_cpus.itb.wrAccesses             1084084                       # TLB accesses on write requests
system.switch_cpus.itb.wrMisses                    10                       # TLB misses on write requests
system.switch_cpus.memDep0.conflictingLoads        23321                       # Number of conflicting loads.
system.switch_cpus.memDep0.conflictingStores        95848                       # Number of conflicting stores.
system.switch_cpus.memDep0.insertedLoads      7789748                       # Number of loads inserted to the mem dependence unit.
system.switch_cpus.memDep0.insertedStores      2418988                       # Number of stores inserted to the mem dependence unit.
system.switch_cpus.misc_regfile_reads        10607854                       # number of misc regfile reads
system.switch_cpus.misc_regfile_writes              1                       # number of misc regfile writes
system.switch_cpus.numCycles                 16439357                       # number of cpu cycles simulated
system.switch_cpus.numWorkItemsCompleted            0                       # number of work items this cpu completed
system.switch_cpus.numWorkItemsStarted              0                       # number of work items this cpu started
system.switch_cpus.rename.BlockCycles         4393987                       # Number of cycles rename is blocking
system.switch_cpus.rename.CommittedMaps      20390800                       # Number of HB maps that are committed
system.switch_cpus.rename.IQFullEvents         178962                       # Number of times rename has blocked due to IQ full
system.switch_cpus.rename.IdleCycles          1035843                       # Number of cycles rename is idle
system.switch_cpus.rename.LQFullEvents        3113258                       # Number of times rename has blocked due to LQ full
system.switch_cpus.rename.ROBFullEvents         12749                       # Number of times rename has blocked due to ROB full
system.switch_cpus.rename.RenameLookups      67938505                       # Number of register rename lookups that rename has made
system.switch_cpus.rename.RenamedInsts       23064812                       # Number of instructions processed by rename
system.switch_cpus.rename.RenamedOperands     20906405                       # Number of destination operands rename has renamed
system.switch_cpus.rename.RunCycles           2815545                       # Number of cycles rename is running
system.switch_cpus.rename.SQFullEvents        4816957                       # Number of times rename has blocked due to SQ full
system.switch_cpus.rename.SquashCycles           6083                       # Number of cycles rename is squashing
system.switch_cpus.rename.UnblockCycles       8154795                       # Number of cycles rename is unblocking
system.switch_cpus.rename.UndoneMaps           515519                       # Number of HB maps that are undone due to squashing
system.switch_cpus.rename.fp_rename_lookups     36040580                       # Number of floating rename lookups
system.switch_cpus.rename.int_rename_lookups     21168443                       # Number of integer rename lookups
system.switch_cpus.rename.serializeStallCycles            0                       # count of cycles rename stalled for serializing inst
system.switch_cpus.rename.serializingInsts            0                       # count of serializing insts renamed
system.switch_cpus.rename.skidInsts           3794705                       # count of insts added to the skid buffer
system.switch_cpus.rename.tempSerializingInsts            0                       # count of temporary serializing insts renamed
system.switch_cpus.rob.rob_reads             37665356                       # The number of ROB reads
system.switch_cpus.rob.rob_writes            45954206                       # The number of ROB writes
system.switch_cpus.timesIdled                     327                       # Number of times that the entire CPU went into an idle state and unscheduled itself
system.tol2bus.snoop_filter.hit_multi_requests            0                       # Number of requests hitting in the snoop filter with multiple (>1) holders of the requested data.
system.tol2bus.snoop_filter.hit_multi_snoops            0                       # Number of snoops hitting in the snoop filter with multiple (>1) holders of the requested data.
system.tol2bus.snoop_filter.hit_single_requests       113435                       # Number of requests hitting in the snoop filter with a single holder of the requested data.
system.tol2bus.snoop_filter.hit_single_snoops        46365                       # Number of snoops hitting in the snoop filter with a single holder of the requested data.
system.tol2bus.snoop_filter.tot_requests       228174                       # Total number of requests made to the snoop filter.
system.tol2bus.snoop_filter.tot_snoops          46365                       # Total number of snoops made to the snoop filter.
system.membus.pwrStateResidencyTicks::UNDEFINED 572575532942500                       # Cumulative time (in ticks) in various power states
system.membus.trans_dist::ReadResp              73541                       # Transaction distribution
system.membus.trans_dist::WritebackDirty        29507                       # Transaction distribution
system.membus.trans_dist::CleanEvict            71183                       # Transaction distribution
system.membus.trans_dist::ReadExReq             29566                       # Transaction distribution
system.membus.trans_dist::ReadExResp            29566                       # Transaction distribution
system.membus.trans_dist::ReadSharedReq         73541                       # Transaction distribution
system.membus.pkt_count_system.l2.mem_side::system.mem_ctrls.port       306904                       # Packet count per connected master and slave (bytes)
system.membus.pkt_count_system.l2.mem_side::total       306904                       # Packet count per connected master and slave (bytes)
system.membus.pkt_count::total                 306904                       # Packet count per connected master and slave (bytes)
system.membus.pkt_size_system.l2.mem_side::system.mem_ctrls.port      8487296                       # Cumulative packet size per connected master and slave (bytes)
system.membus.pkt_size_system.l2.mem_side::total      8487296                       # Cumulative packet size per connected master and slave (bytes)
system.membus.pkt_size::total                 8487296                       # Cumulative packet size per connected master and slave (bytes)
system.membus.snoops                                0                       # Total snoops (count)
system.membus.snoopTraffic                          0                       # Total snoop traffic (bytes)
system.membus.snoop_fanout::samples            103107                       # Request fanout histogram
system.membus.snoop_fanout::mean                    0                       # Request fanout histogram
system.membus.snoop_fanout::stdev                   0                       # Request fanout histogram
system.membus.snoop_fanout::underflows              0      0.00%      0.00% # Request fanout histogram
system.membus.snoop_fanout::0                  103107    100.00%    100.00% # Request fanout histogram
system.membus.snoop_fanout::1                       0      0.00%    100.00% # Request fanout histogram
system.membus.snoop_fanout::overflows               0      0.00%    100.00% # Request fanout histogram
system.membus.snoop_fanout::min_value               0                       # Request fanout histogram
system.membus.snoop_fanout::max_value               0                       # Request fanout histogram
system.membus.snoop_fanout::total              103107                       # Request fanout histogram
system.membus.reqLayer2.occupancy           340380000                       # Layer occupancy (ticks)
system.membus.reqLayer2.utilization               4.1                       # Layer utilization (%)
system.membus.respLayer1.occupancy          569860750                       # Layer occupancy (ticks)
system.membus.respLayer1.utilization              6.9                       # Layer utilization (%)
system.switch_cpus.pwrStateResidencyTicks::OFF   8219688750                       # Cumulative time (in ticks) in various power states
system.switch_cpus.dtb.walker.pwrStateResidencyTicks::UNDEFINED 572575532942500                       # Cumulative time (in ticks) in various power states
system.switch_cpus.itb.walker.pwrStateResidencyTicks::UNDEFINED 572575532942500                       # Cumulative time (in ticks) in various power states
system.tol2bus.pwrStateResidencyTicks::UNDEFINED 572575532942500                       # Cumulative time (in ticks) in various power states
system.tol2bus.trans_dist::ReadResp             83073                       # Transaction distribution
system.tol2bus.trans_dist::WritebackDirty        63692                       # Transaction distribution
system.tol2bus.trans_dist::WritebackClean          116                       # Transaction distribution
system.tol2bus.trans_dist::CleanEvict          167407                       # Transaction distribution
system.tol2bus.trans_dist::ReadExReq            31666                       # Transaction distribution
system.tol2bus.trans_dist::ReadExResp           31666                       # Transaction distribution
system.tol2bus.trans_dist::ReadCleanReq           396                       # Transaction distribution
system.tol2bus.trans_dist::ReadSharedReq        82677                       # Transaction distribution
system.tol2bus.pkt_count_system.cpu.icache.mem_side::system.l2.cpu_side          908                       # Packet count per connected master and slave (bytes)
system.tol2bus.pkt_count_system.cpu.dcache.mem_side::system.l2.cpu_side       342005                       # Packet count per connected master and slave (bytes)
system.tol2bus.pkt_count::total                342913                       # Packet count per connected master and slave (bytes)
system.tol2bus.pkt_size_system.cpu.icache.mem_side::system.l2.cpu_side        32768                       # Cumulative packet size per connected master and slave (bytes)
system.tol2bus.pkt_size_system.cpu.dcache.mem_side::system.l2.cpu_side      9505792                       # Cumulative packet size per connected master and slave (bytes)
system.tol2bus.pkt_size::total                9538560                       # Cumulative packet size per connected master and slave (bytes)
system.tol2bus.snoops                          117780                       # Total snoops (count)
system.tol2bus.snoopTraffic                   1888448                       # Total snoop traffic (bytes)
system.tol2bus.snoop_fanout::samples           232519                       # Request fanout histogram
system.tol2bus.snoop_fanout::mean            0.199403                       # Request fanout histogram
system.tol2bus.snoop_fanout::stdev           0.399552                       # Request fanout histogram
system.tol2bus.snoop_fanout::underflows             0      0.00%      0.00% # Request fanout histogram
system.tol2bus.snoop_fanout::0                 186154     80.06%     80.06% # Request fanout histogram
system.tol2bus.snoop_fanout::1                  46365     19.94%    100.00% # Request fanout histogram
system.tol2bus.snoop_fanout::2                      0      0.00%    100.00% # Request fanout histogram
system.tol2bus.snoop_fanout::3                      0      0.00%    100.00% # Request fanout histogram
system.tol2bus.snoop_fanout::4                      0      0.00%    100.00% # Request fanout histogram
system.tol2bus.snoop_fanout::overflows              0      0.00%    100.00% # Request fanout histogram
system.tol2bus.snoop_fanout::min_value              0                       # Request fanout histogram
system.tol2bus.snoop_fanout::max_value              1                       # Request fanout histogram
system.tol2bus.snoop_fanout::total             232519                       # Request fanout histogram
system.tol2bus.reqLayer0.occupancy          148385500                       # Layer occupancy (ticks)
system.tol2bus.reqLayer0.utilization              1.8                       # Layer utilization (%)
system.tol2bus.respLayer1.occupancy         171510000                       # Layer occupancy (ticks)
system.tol2bus.respLayer1.utilization             2.1                       # Layer utilization (%)
system.tol2bus.respLayer0.occupancy            591000                       # Layer occupancy (ticks)
system.tol2bus.respLayer0.utilization             0.0                       # Layer utilization (%)
system.voltage_domain.voltage                       1                       # Voltage in Volts
system.clk_domain.clock                          1000                       # Clock period in ticks
system.l2.pwrStateResidencyTicks::UNDEFINED 572575532942500                       # Cumulative time (in ticks) in various power states
system.l2.demand_hits::.switch_cpus.inst           28                       # number of demand (read+write) hits
system.l2.demand_hits::.switch_cpus.data        11604                       # number of demand (read+write) hits
system.l2.demand_hits::total                    11632                       # number of demand (read+write) hits
system.l2.overall_hits::.switch_cpus.inst           28                       # number of overall hits
system.l2.overall_hits::.switch_cpus.data        11604                       # number of overall hits
system.l2.overall_hits::total                   11632                       # number of overall hits
system.l2.demand_misses::.cpu.inst                  2                       # number of demand (read+write) misses
system.l2.demand_misses::.cpu.data                  3                       # number of demand (read+write) misses
system.l2.demand_misses::.switch_cpus.inst          366                       # number of demand (read+write) misses
system.l2.demand_misses::.switch_cpus.data       102736                       # number of demand (read+write) misses
system.l2.demand_misses::total                 103107                       # number of demand (read+write) misses
system.l2.overall_misses::.cpu.inst                 2                       # number of overall misses
system.l2.overall_misses::.cpu.data                 3                       # number of overall misses
system.l2.overall_misses::.switch_cpus.inst          366                       # number of overall misses
system.l2.overall_misses::.switch_cpus.data       102736                       # number of overall misses
system.l2.overall_misses::total                103107                       # number of overall misses
system.l2.demand_miss_latency::.switch_cpus.inst     29250000                       # number of demand (read+write) miss cycles
system.l2.demand_miss_latency::.switch_cpus.data  10441308000                       # number of demand (read+write) miss cycles
system.l2.demand_miss_latency::total      10470558000                       # number of demand (read+write) miss cycles
system.l2.overall_miss_latency::.switch_cpus.inst     29250000                       # number of overall miss cycles
system.l2.overall_miss_latency::.switch_cpus.data  10441308000                       # number of overall miss cycles
system.l2.overall_miss_latency::total     10470558000                       # number of overall miss cycles
system.l2.demand_accesses::.cpu.inst                2                       # number of demand (read+write) accesses
system.l2.demand_accesses::.cpu.data                3                       # number of demand (read+write) accesses
system.l2.demand_accesses::.switch_cpus.inst          394                       # number of demand (read+write) accesses
system.l2.demand_accesses::.switch_cpus.data       114340                       # number of demand (read+write) accesses
system.l2.demand_accesses::total               114739                       # number of demand (read+write) accesses
system.l2.overall_accesses::.cpu.inst               2                       # number of overall (read+write) accesses
system.l2.overall_accesses::.cpu.data               3                       # number of overall (read+write) accesses
system.l2.overall_accesses::.switch_cpus.inst          394                       # number of overall (read+write) accesses
system.l2.overall_accesses::.switch_cpus.data       114340                       # number of overall (read+write) accesses
system.l2.overall_accesses::total              114739                       # number of overall (read+write) accesses
system.l2.demand_miss_rate::.cpu.inst               1                       # miss rate for demand accesses
system.l2.demand_miss_rate::.cpu.data               1                       # miss rate for demand accesses
system.l2.demand_miss_rate::.switch_cpus.inst     0.928934                       # miss rate for demand accesses
system.l2.demand_miss_rate::.switch_cpus.data     0.898513                       # miss rate for demand accesses
system.l2.demand_miss_rate::total            0.898622                       # miss rate for demand accesses
system.l2.overall_miss_rate::.cpu.inst              1                       # miss rate for overall accesses
system.l2.overall_miss_rate::.cpu.data              1                       # miss rate for overall accesses
system.l2.overall_miss_rate::.switch_cpus.inst     0.928934                       # miss rate for overall accesses
system.l2.overall_miss_rate::.switch_cpus.data     0.898513                       # miss rate for overall accesses
system.l2.overall_miss_rate::total           0.898622                       # miss rate for overall accesses
system.l2.demand_avg_miss_latency::.switch_cpus.inst 79918.032787                       # average overall miss latency
system.l2.demand_avg_miss_latency::.switch_cpus.data 101632.417069                       # average overall miss latency
system.l2.demand_avg_miss_latency::total 101550.408799                       # average overall miss latency
system.l2.overall_avg_miss_latency::.switch_cpus.inst 79918.032787                       # average overall miss latency
system.l2.overall_avg_miss_latency::.switch_cpus.data 101632.417069                       # average overall miss latency
system.l2.overall_avg_miss_latency::total 101550.408799                       # average overall miss latency
system.l2.blocked_cycles::no_mshrs                  0                       # number of cycles access was blocked
system.l2.blocked_cycles::no_targets                0                       # number of cycles access was blocked
system.l2.blocked::no_mshrs                         0                       # number of cycles access was blocked
system.l2.blocked::no_targets                       0                       # number of cycles access was blocked
system.l2.avg_blocked_cycles::no_mshrs            nan                       # average number of cycles each access was blocked
system.l2.avg_blocked_cycles::no_targets          nan                       # average number of cycles each access was blocked
system.l2.writebacks::.writebacks               29507                       # number of writebacks
system.l2.writebacks::total                     29507                       # number of writebacks
system.l2.demand_mshr_misses::.switch_cpus.inst          366                       # number of demand (read+write) MSHR misses
system.l2.demand_mshr_misses::.switch_cpus.data       102736                       # number of demand (read+write) MSHR misses
system.l2.demand_mshr_misses::total            103102                       # number of demand (read+write) MSHR misses
system.l2.overall_mshr_misses::.switch_cpus.inst          366                       # number of overall MSHR misses
system.l2.overall_mshr_misses::.switch_cpus.data       102736                       # number of overall MSHR misses
system.l2.overall_mshr_misses::total           103102                       # number of overall MSHR misses
system.l2.demand_mshr_miss_latency::.switch_cpus.inst     25590000                       # number of demand (read+write) MSHR miss cycles
system.l2.demand_mshr_miss_latency::.switch_cpus.data   9413948000                       # number of demand (read+write) MSHR miss cycles
system.l2.demand_mshr_miss_latency::total   9439538000                       # number of demand (read+write) MSHR miss cycles
system.l2.overall_mshr_miss_latency::.switch_cpus.inst     25590000                       # number of overall MSHR miss cycles
system.l2.overall_mshr_miss_latency::.switch_cpus.data   9413948000                       # number of overall MSHR miss cycles
system.l2.overall_mshr_miss_latency::total   9439538000                       # number of overall MSHR miss cycles
system.l2.demand_mshr_miss_rate::.switch_cpus.inst     0.928934                       # mshr miss rate for demand accesses
system.l2.demand_mshr_miss_rate::.switch_cpus.data     0.898513                       # mshr miss rate for demand accesses
system.l2.demand_mshr_miss_rate::total       0.898579                       # mshr miss rate for demand accesses
system.l2.overall_mshr_miss_rate::.switch_cpus.inst     0.928934                       # mshr miss rate for overall accesses
system.l2.overall_mshr_miss_rate::.switch_cpus.data     0.898513                       # mshr miss rate for overall accesses
system.l2.overall_mshr_miss_rate::total      0.898579                       # mshr miss rate for overall accesses
system.l2.demand_avg_mshr_miss_latency::.switch_cpus.inst 69918.032787                       # average overall mshr miss latency
system.l2.demand_avg_mshr_miss_latency::.switch_cpus.data 91632.417069                       # average overall mshr miss latency
system.l2.demand_avg_mshr_miss_latency::total 91555.333553                       # average overall mshr miss latency
system.l2.overall_avg_mshr_miss_latency::.switch_cpus.inst 69918.032787                       # average overall mshr miss latency
system.l2.overall_avg_mshr_miss_latency::.switch_cpus.data 91632.417069                       # average overall mshr miss latency
system.l2.overall_avg_mshr_miss_latency::total 91555.333553                       # average overall mshr miss latency
system.l2.replacements                         117780                       # number of replacements
system.l2.WritebackDirty_hits::.writebacks        34185                       # number of WritebackDirty hits
system.l2.WritebackDirty_hits::total            34185                       # number of WritebackDirty hits
system.l2.WritebackDirty_accesses::.writebacks        34185                       # number of WritebackDirty accesses(hits+misses)
system.l2.WritebackDirty_accesses::total        34185                       # number of WritebackDirty accesses(hits+misses)
system.l2.WritebackClean_hits::.writebacks          116                       # number of WritebackClean hits
system.l2.WritebackClean_hits::total              116                       # number of WritebackClean hits
system.l2.WritebackClean_accesses::.writebacks          116                       # number of WritebackClean accesses(hits+misses)
system.l2.WritebackClean_accesses::total          116                       # number of WritebackClean accesses(hits+misses)
system.l2.CleanEvict_mshr_misses::.writebacks        29275                       # number of CleanEvict MSHR misses
system.l2.CleanEvict_mshr_misses::total         29275                       # number of CleanEvict MSHR misses
system.l2.CleanEvict_mshr_miss_rate::.writebacks          inf                       # mshr miss rate for CleanEvict accesses
system.l2.CleanEvict_mshr_miss_rate::total          inf                       # mshr miss rate for CleanEvict accesses
system.l2.ReadExReq_hits::.switch_cpus.data         2100                       # number of ReadExReq hits
system.l2.ReadExReq_hits::total                  2100                       # number of ReadExReq hits
system.l2.ReadExReq_misses::.cpu.data               1                       # number of ReadExReq misses
system.l2.ReadExReq_misses::.switch_cpus.data        29565                       # number of ReadExReq misses
system.l2.ReadExReq_misses::total               29566                       # number of ReadExReq misses
system.l2.ReadExReq_miss_latency::.switch_cpus.data   2880534500                       # number of ReadExReq miss cycles
system.l2.ReadExReq_miss_latency::total    2880534500                       # number of ReadExReq miss cycles
system.l2.ReadExReq_accesses::.cpu.data             1                       # number of ReadExReq accesses(hits+misses)
system.l2.ReadExReq_accesses::.switch_cpus.data        31665                       # number of ReadExReq accesses(hits+misses)
system.l2.ReadExReq_accesses::total             31666                       # number of ReadExReq accesses(hits+misses)
system.l2.ReadExReq_miss_rate::.cpu.data            1                       # miss rate for ReadExReq accesses
system.l2.ReadExReq_miss_rate::.switch_cpus.data     0.933681                       # miss rate for ReadExReq accesses
system.l2.ReadExReq_miss_rate::total         0.933683                       # miss rate for ReadExReq accesses
system.l2.ReadExReq_avg_miss_latency::.switch_cpus.data 97430.559784                       # average ReadExReq miss latency
system.l2.ReadExReq_avg_miss_latency::total 97427.264425                       # average ReadExReq miss latency
system.l2.ReadExReq_mshr_misses::.switch_cpus.data        29565                       # number of ReadExReq MSHR misses
system.l2.ReadExReq_mshr_misses::total          29565                       # number of ReadExReq MSHR misses
system.l2.ReadExReq_mshr_miss_latency::.switch_cpus.data   2584884500                       # number of ReadExReq MSHR miss cycles
system.l2.ReadExReq_mshr_miss_latency::total   2584884500                       # number of ReadExReq MSHR miss cycles
system.l2.ReadExReq_mshr_miss_rate::.switch_cpus.data     0.933681                       # mshr miss rate for ReadExReq accesses
system.l2.ReadExReq_mshr_miss_rate::total     0.933651                       # mshr miss rate for ReadExReq accesses
system.l2.ReadExReq_avg_mshr_miss_latency::.switch_cpus.data 87430.559784                       # average ReadExReq mshr miss latency
system.l2.ReadExReq_avg_mshr_miss_latency::total 87430.559784                       # average ReadExReq mshr miss latency
system.l2.ReadCleanReq_hits::.switch_cpus.inst           28                       # number of ReadCleanReq hits
system.l2.ReadCleanReq_hits::total                 28                       # number of ReadCleanReq hits
system.l2.ReadCleanReq_misses::.cpu.inst            2                       # number of ReadCleanReq misses
system.l2.ReadCleanReq_misses::.switch_cpus.inst          366                       # number of ReadCleanReq misses
system.l2.ReadCleanReq_misses::total              368                       # number of ReadCleanReq misses
system.l2.ReadCleanReq_miss_latency::.switch_cpus.inst     29250000                       # number of ReadCleanReq miss cycles
system.l2.ReadCleanReq_miss_latency::total     29250000                       # number of ReadCleanReq miss cycles
system.l2.ReadCleanReq_accesses::.cpu.inst            2                       # number of ReadCleanReq accesses(hits+misses)
system.l2.ReadCleanReq_accesses::.switch_cpus.inst          394                       # number of ReadCleanReq accesses(hits+misses)
system.l2.ReadCleanReq_accesses::total            396                       # number of ReadCleanReq accesses(hits+misses)
system.l2.ReadCleanReq_miss_rate::.cpu.inst            1                       # miss rate for ReadCleanReq accesses
system.l2.ReadCleanReq_miss_rate::.switch_cpus.inst     0.928934                       # miss rate for ReadCleanReq accesses
system.l2.ReadCleanReq_miss_rate::total      0.929293                       # miss rate for ReadCleanReq accesses
system.l2.ReadCleanReq_avg_miss_latency::.switch_cpus.inst 79918.032787                       # average ReadCleanReq miss latency
system.l2.ReadCleanReq_avg_miss_latency::total 79483.695652                       # average ReadCleanReq miss latency
[...]
system.cpu.dtb_walker_cache.pwrStateResidencyTicks::UNDEFINED 572600203411000                       # Cumulative time (in ticks) in various power states
system.cpu.dtb_walker_cache.blocked_cycles::no_mshrs            0                       # number of cycles access was blocked
system.cpu.dtb_walker_cache.blocked_cycles::no_targets            0                       # number of cycles access was blocked
system.cpu.dtb_walker_cache.blocked::no_mshrs            0                       # number of cycles access was blocked
system.cpu.dtb_walker_cache.blocked::no_targets            0                       # number of cycles access was blocked
system.cpu.dtb_walker_cache.avg_blocked_cycles::no_mshrs          nan                       # average number of cycles each access was blocked
system.cpu.dtb_walker_cache.avg_blocked_cycles::no_targets          nan                       # average number of cycles each access was blocked
system.cpu.dtb_walker_cache.replacements            0                       # number of replacements
system.cpu.dtb_walker_cache.tags.pwrStateResidencyTicks::UNDEFINED 572600203411000                       # Cumulative time (in ticks) in various power states
system.cpu.dtb_walker_cache.tags.tagsinuse            0                       # Cycle average of tags in use
system.cpu.dtb_walker_cache.tags.total_refs            0                       # Total number of references to valid blocks.
system.cpu.dtb_walker_cache.tags.sampled_refs            0                       # Sample count of references to valid blocks.
system.cpu.dtb_walker_cache.tags.avg_refs          nan                       # Average number of references to valid blocks.
system.cpu.dtb_walker_cache.tags.warmup_cycle            0                       # Cycle when the warmup percentage was hit.
system.cpu.dtb_walker_cache.tags.tag_accesses            0                       # Number of tag accesses
system.cpu.dtb_walker_cache.tags.data_accesses            0                       # Number of data accesses
system.cpu.dcache.pwrStateResidencyTicks::UNDEFINED 572600203411000                       # Cumulative time (in ticks) in various power states
system.cpu.dcache.demand_hits::.cpu.data            3                       # number of demand (read+write) hits
system.cpu.dcache.demand_hits::.switch_cpus.data     35478313                       # number of demand (read+write) hits
system.cpu.dcache.demand_hits::total         35478316                       # number of demand (read+write) hits
system.cpu.dcache.overall_hits::.cpu.data            3                       # number of overall hits
system.cpu.dcache.overall_hits::.switch_cpus.data     35536684                       # number of overall hits
system.cpu.dcache.overall_hits::total        35536687                       # number of overall hits
system.cpu.dcache.demand_misses::.cpu.data            3                       # number of demand (read+write) misses
system.cpu.dcache.demand_misses::.switch_cpus.data       874212                       # number of demand (read+write) misses
system.cpu.dcache.demand_misses::total         874215                       # number of demand (read+write) misses
system.cpu.dcache.overall_misses::.cpu.data            3                       # number of overall misses
system.cpu.dcache.overall_misses::.switch_cpus.data       885079                       # number of overall misses
system.cpu.dcache.overall_misses::total        885082                       # number of overall misses
system.cpu.dcache.demand_miss_latency::.switch_cpus.data  72657480828                       # number of demand (read+write) miss cycles
system.cpu.dcache.demand_miss_latency::total  72657480828                       # number of demand (read+write) miss cycles
system.cpu.dcache.overall_miss_latency::.switch_cpus.data  72657480828                       # number of overall miss cycles
system.cpu.dcache.overall_miss_latency::total  72657480828                       # number of overall miss cycles
system.cpu.dcache.demand_accesses::.cpu.data            6                       # number of demand (read+write) accesses
system.cpu.dcache.demand_accesses::.switch_cpus.data     36352525                       # number of demand (read+write) accesses
system.cpu.dcache.demand_accesses::total     36352531                       # number of demand (read+write) accesses
system.cpu.dcache.overall_accesses::.cpu.data            6                       # number of overall (read+write) accesses
system.cpu.dcache.overall_accesses::.switch_cpus.data     36421763                       # number of overall (read+write) accesses
system.cpu.dcache.overall_accesses::total     36421769                       # number of overall (read+write) accesses
system.cpu.dcache.demand_miss_rate::.cpu.data     0.500000                       # miss rate for demand accesses
system.cpu.dcache.demand_miss_rate::.switch_cpus.data     0.024048                       # miss rate for demand accesses
system.cpu.dcache.demand_miss_rate::total     0.024048                       # miss rate for demand accesses
system.cpu.dcache.overall_miss_rate::.cpu.data     0.500000                       # miss rate for overall accesses
system.cpu.dcache.overall_miss_rate::.switch_cpus.data     0.024301                       # miss rate for overall accesses
system.cpu.dcache.overall_miss_rate::total     0.024301                       # miss rate for overall accesses
system.cpu.dcache.demand_avg_miss_latency::.switch_cpus.data 83111.969211                       # average overall miss latency
system.cpu.dcache.demand_avg_miss_latency::total 83111.684000                       # average overall miss latency
system.cpu.dcache.overall_avg_miss_latency::.switch_cpus.data 82091.520450                       # average overall miss latency
system.cpu.dcache.overall_avg_miss_latency::total 82091.242199                       # average overall miss latency
system.cpu.dcache.blocked_cycles::no_mshrs      7331651                       # number of cycles access was blocked
system.cpu.dcache.blocked_cycles::no_targets           18                       # number of cycles access was blocked
system.cpu.dcache.blocked::no_mshrs            104604                       # number of cycles access was blocked
system.cpu.dcache.blocked::no_targets               1                       # number of cycles access was blocked
system.cpu.dcache.avg_blocked_cycles::no_mshrs    70.089585                       # average number of cycles each access was blocked
system.cpu.dcache.avg_blocked_cycles::no_targets           18                       # average number of cycles each access was blocked
system.cpu.dcache.writebacks::.writebacks       131975                       # number of writebacks
system.cpu.dcache.writebacks::total            131975                       # number of writebacks
system.cpu.dcache.demand_mshr_hits::.switch_cpus.data       416892                       # number of demand (read+write) MSHR hits
system.cpu.dcache.demand_mshr_hits::total       416892                       # number of demand (read+write) MSHR hits
system.cpu.dcache.overall_mshr_hits::.switch_cpus.data       416892                       # number of overall MSHR hits
system.cpu.dcache.overall_mshr_hits::total       416892                       # number of overall MSHR hits
system.cpu.dcache.demand_mshr_misses::.switch_cpus.data       457320                       # number of demand (read+write) MSHR misses
system.cpu.dcache.demand_mshr_misses::total       457320                       # number of demand (read+write) MSHR misses
system.cpu.dcache.overall_mshr_misses::.switch_cpus.data       462446                       # number of overall MSHR misses
system.cpu.dcache.overall_mshr_misses::total       462446                       # number of overall MSHR misses
system.cpu.dcache.demand_mshr_miss_latency::.switch_cpus.data  43091975330                       # number of demand (read+write) MSHR miss cycles
system.cpu.dcache.demand_mshr_miss_latency::total  43091975330                       # number of demand (read+write) MSHR miss cycles
system.cpu.dcache.overall_mshr_miss_latency::.switch_cpus.data  43559760330                       # number of overall MSHR miss cycles
system.cpu.dcache.overall_mshr_miss_latency::total  43559760330                       # number of overall MSHR miss cycles
system.cpu.dcache.demand_mshr_miss_rate::.switch_cpus.data     0.012580                       # mshr miss rate for demand accesses
system.cpu.dcache.demand_mshr_miss_rate::total     0.012580                       # mshr miss rate for demand accesses
system.cpu.dcache.overall_mshr_miss_rate::.switch_cpus.data     0.012697                       # mshr miss rate for overall accesses
system.cpu.dcache.overall_mshr_miss_rate::total     0.012697                       # mshr miss rate for overall accesses
system.cpu.dcache.demand_avg_mshr_miss_latency::.switch_cpus.data 94227.183001                       # average overall mshr miss latency
system.cpu.dcache.demand_avg_mshr_miss_latency::total 94227.183001                       # average overall mshr miss latency
system.cpu.dcache.overall_avg_mshr_miss_latency::.switch_cpus.data 94194.263395                       # average overall mshr miss latency
system.cpu.dcache.overall_avg_mshr_miss_latency::total 94194.263395                       # average overall mshr miss latency
system.cpu.dcache.replacements                 461421                       # number of replacements
system.cpu.dcache.ReadReq_hits::.cpu.data            2                       # number of ReadReq hits
system.cpu.dcache.ReadReq_hits::.switch_cpus.data     27020469                       # number of ReadReq hits
system.cpu.dcache.ReadReq_hits::total        27020471                       # number of ReadReq hits
system.cpu.dcache.ReadReq_misses::.cpu.data            2                       # number of ReadReq misses
system.cpu.dcache.ReadReq_misses::.switch_cpus.data       750959                       # number of ReadReq misses
system.cpu.dcache.ReadReq_misses::total        750961                       # number of ReadReq misses
system.cpu.dcache.ReadReq_miss_latency::.switch_cpus.data  60968937000                       # number of ReadReq miss cycles
system.cpu.dcache.ReadReq_miss_latency::total  60968937000                       # number of ReadReq miss cycles
system.cpu.dcache.ReadReq_accesses::.cpu.data            4                       # number of ReadReq accesses(hits+misses)
system.cpu.dcache.ReadReq_accesses::.switch_cpus.data     27771428                       # number of ReadReq accesses(hits+misses)
system.cpu.dcache.ReadReq_accesses::total     27771432                       # number of ReadReq accesses(hits+misses)
system.cpu.dcache.ReadReq_miss_rate::.cpu.data     0.500000                       # miss rate for ReadReq accesses
system.cpu.dcache.ReadReq_miss_rate::.switch_cpus.data     0.027041                       # miss rate for ReadReq accesses
system.cpu.dcache.ReadReq_miss_rate::total     0.027041                       # miss rate for ReadReq accesses
system.cpu.dcache.ReadReq_avg_miss_latency::.switch_cpus.data 81188.103478                       # average ReadReq miss latency
system.cpu.dcache.ReadReq_avg_miss_latency::total 81187.887254                       # average ReadReq miss latency
system.cpu.dcache.ReadReq_mshr_hits::.switch_cpus.data       416782                       # number of ReadReq MSHR hits
system.cpu.dcache.ReadReq_mshr_hits::total       416782                       # number of ReadReq MSHR hits
system.cpu.dcache.ReadReq_mshr_misses::.switch_cpus.data       334177                       # number of ReadReq MSHR misses
system.cpu.dcache.ReadReq_mshr_misses::total       334177                       # number of ReadReq MSHR misses
system.cpu.dcache.ReadReq_mshr_miss_latency::.switch_cpus.data  31530335000                       # number of ReadReq MSHR miss cycles
system.cpu.dcache.ReadReq_mshr_miss_latency::total  31530335000                       # number of ReadReq MSHR miss cycles
system.cpu.dcache.ReadReq_mshr_miss_rate::.switch_cpus.data     0.012033                       # mshr miss rate for ReadReq accesses
system.cpu.dcache.ReadReq_mshr_miss_rate::total     0.012033                       # mshr miss rate for ReadReq accesses
system.cpu.dcache.ReadReq_avg_mshr_miss_latency::.switch_cpus.data 94352.199583                       # average ReadReq mshr miss latency
system.cpu.dcache.ReadReq_avg_mshr_miss_latency::total 94352.199583                       # average ReadReq mshr miss latency
system.cpu.dcache.WriteReq_hits::.cpu.data            1                       # number of WriteReq hits
system.cpu.dcache.WriteReq_hits::.switch_cpus.data      8457844                       # number of WriteReq hits
system.cpu.dcache.WriteReq_hits::total        8457845                       # number of WriteReq hits
system.cpu.dcache.WriteReq_misses::.cpu.data            1                       # number of WriteReq misses
system.cpu.dcache.WriteReq_misses::.switch_cpus.data       123253                       # number of WriteReq misses
system.cpu.dcache.WriteReq_misses::total       123254                       # number of WriteReq misses
system.cpu.dcache.WriteReq_miss_latency::.switch_cpus.data  11688543828                       # number of WriteReq miss cycles
system.cpu.dcache.WriteReq_miss_latency::total  11688543828                       # number of WriteReq miss cycles
system.cpu.dcache.WriteReq_accesses::.cpu.data            2                       # number of WriteReq accesses(hits+misses)
system.cpu.dcache.WriteReq_accesses::.switch_cpus.data      8581097                       # number of WriteReq accesses(hits+misses)
system.cpu.dcache.WriteReq_accesses::total      8581099                       # number of WriteReq accesses(hits+misses)
system.cpu.dcache.WriteReq_miss_rate::.cpu.data     0.500000                       # miss rate for WriteReq accesses
system.cpu.dcache.WriteReq_miss_rate::.switch_cpus.data     0.014363                       # miss rate for WriteReq accesses
system.cpu.dcache.WriteReq_miss_rate::total     0.014363                       # miss rate for WriteReq accesses
system.cpu.dcache.WriteReq_avg_miss_latency::.switch_cpus.data 94833.747073                       # average WriteReq miss latency
system.cpu.dcache.WriteReq_avg_miss_latency::total 94832.977656                       # average WriteReq miss latency
system.cpu.dcache.WriteReq_mshr_hits::.switch_cpus.data          110                       # number of WriteReq MSHR hits
system.cpu.dcache.WriteReq_mshr_hits::total          110                       # number of WriteReq MSHR hits
system.cpu.dcache.WriteReq_mshr_misses::.switch_cpus.data       123143                       # number of WriteReq MSHR misses
system.cpu.dcache.WriteReq_mshr_misses::total       123143                       # number of WriteReq MSHR misses
system.cpu.dcache.WriteReq_mshr_miss_latency::.switch_cpus.data  11561640330                       # number of WriteReq MSHR miss cycles
system.cpu.dcache.WriteReq_mshr_miss_latency::total  11561640330                       # number of WriteReq MSHR miss cycles
system.cpu.dcache.WriteReq_mshr_miss_rate::.switch_cpus.data     0.014350                       # mshr miss rate for WriteReq accesses
system.cpu.dcache.WriteReq_mshr_miss_rate::total     0.014350                       # mshr miss rate for WriteReq accesses
system.cpu.dcache.WriteReq_avg_mshr_miss_latency::.switch_cpus.data 93887.921603                       # average WriteReq mshr miss latency
system.cpu.dcache.WriteReq_avg_mshr_miss_latency::total 93887.921603                       # average WriteReq mshr miss latency
system.cpu.dcache.SoftPFReq_hits::.switch_cpus.data        58371                       # number of SoftPFReq hits
system.cpu.dcache.SoftPFReq_hits::total         58371                       # number of SoftPFReq hits
system.cpu.dcache.SoftPFReq_misses::.switch_cpus.data        10867                       # number of SoftPFReq misses
system.cpu.dcache.SoftPFReq_misses::total        10867                       # number of SoftPFReq misses
system.cpu.dcache.SoftPFReq_accesses::.switch_cpus.data        69238                       # number of SoftPFReq accesses(hits+misses)
system.cpu.dcache.SoftPFReq_accesses::total        69238                       # number of SoftPFReq accesses(hits+misses)
system.cpu.dcache.SoftPFReq_miss_rate::.switch_cpus.data     0.156951                       # miss rate for SoftPFReq accesses
system.cpu.dcache.SoftPFReq_miss_rate::total     0.156951                       # miss rate for SoftPFReq accesses
system.cpu.dcache.SoftPFReq_mshr_misses::.switch_cpus.data         5126                       # number of SoftPFReq MSHR misses
system.cpu.dcache.SoftPFReq_mshr_misses::total         5126                       # number of SoftPFReq MSHR misses
system.cpu.dcache.SoftPFReq_mshr_miss_latency::.switch_cpus.data    467785000                       # number of SoftPFReq MSHR miss cycles
system.cpu.dcache.SoftPFReq_mshr_miss_latency::total    467785000                       # number of SoftPFReq MSHR miss cycles
system.cpu.dcache.SoftPFReq_mshr_miss_rate::.switch_cpus.data     0.074034                       # mshr miss rate for SoftPFReq accesses
system.cpu.dcache.SoftPFReq_mshr_miss_rate::total     0.074034                       # mshr miss rate for SoftPFReq accesses
system.cpu.dcache.SoftPFReq_avg_mshr_miss_latency::.switch_cpus.data 91257.315646                       # average SoftPFReq mshr miss latency
system.cpu.dcache.SoftPFReq_avg_mshr_miss_latency::total 91257.315646                       # average SoftPFReq mshr miss latency
system.cpu.dcache.tags.pwrStateResidencyTicks::UNDEFINED 572600203411000                       # Cumulative time (in ticks) in various power states
system.cpu.dcache.tags.tagsinuse             0.058702                       # Cycle average of tags in use
system.cpu.dcache.tags.total_refs            35999136                       # Total number of references to valid blocks.
system.cpu.dcache.tags.sampled_refs            462445                       # Sample count of references to valid blocks.
system.cpu.dcache.tags.avg_refs             77.845227                       # Average number of references to valid blocks.
system.cpu.dcache.tags.warmup_cycle      572567313256500                       # Cycle when the warmup percentage was hit.
system.cpu.dcache.tags.occ_blocks::.cpu.data     0.000002                       # Average occupied blocks per requestor
system.cpu.dcache.tags.occ_blocks::.switch_cpus.data     0.058701                       # Average occupied blocks per requestor
system.cpu.dcache.tags.occ_percent::.cpu.data     0.000000                       # Average percentage of cache occupancy
system.cpu.dcache.tags.occ_percent::.switch_cpus.data     0.000057                       # Average percentage of cache occupancy
system.cpu.dcache.tags.occ_percent::total     0.000057                       # Average percentage of cache occupancy
system.cpu.dcache.tags.occ_task_id_blocks::1024         1024                       # Occupied blocks per task id
system.cpu.dcache.tags.age_task_id_blocks_1024::0          111                       # Occupied blocks per task id
system.cpu.dcache.tags.age_task_id_blocks_1024::1          529                       # Occupied blocks per task id
system.cpu.dcache.tags.age_task_id_blocks_1024::2          378                       # Occupied blocks per task id
system.cpu.dcache.tags.age_task_id_blocks_1024::3            6                       # Occupied blocks per task id
system.cpu.dcache.tags.occ_task_id_percent::1024            1                       # Percentage of cache occupancy per task id
system.cpu.dcache.tags.tag_accesses          73305983                       # Number of tag accesses
system.cpu.dcache.tags.data_accesses         73305983                       # Number of data accesses

---------- End Simulation Statistics   ----------
