
---------- Begin Simulation Statistics ----------
final_tick                               270775581925000                       # Number of ticks from beginning of simulation (restored from checkpoints and never reset)
host_inst_rate                                   9055                       # Simulator instruction rate (inst/s)
host_mem_usage                                 804752                       # Number of bytes of host memory used
host_op_rate                                    15122                       # Simulator op (including micro ops) rate (op/s)
host_seconds                                  1104.36                       # Real time elapsed on the host
host_tick_rate                                7517368                       # Simulator tick rate (ticks/s)
sim_freq                                 1000000000000                       # Frequency of simulated ticks
sim_insts                                    10000010                       # Number of instructions simulated
sim_ops                                      16699646                       # Number of ops (including micro ops) simulated
sim_seconds                                  0.008302                       # Number of seconds simulated
sim_ticks                                  8301871250                       # Number of ticks simulated
system.cpu.Branches                                 1                       # Number of branches fetched
system.cpu.committedInsts                           7                       # Number of instructions committed
system.cpu.committedOps                            18                       # Number of ops (including micro ops) committed
system.cpu.dtb.rdAccesses                           5                       # TLB accesses on read requests
system.cpu.dtb.rdMisses                             0                       # TLB misses on read requests
system.cpu.dtb.wrAccesses                           1                       # TLB accesses on write requests
system.cpu.dtb.wrMisses                             0                       # TLB misses on write requests
system.cpu.idle_fraction                            0                       # Percentage of idle cycles
system.cpu.itb.rdAccesses                           0                       # TLB accesses on read requests
system.cpu.itb.rdMisses                             0                       # TLB misses on read requests
system.cpu.itb.wrAccesses                           9                       # TLB accesses on write requests
system.cpu.itb.wrMisses                             0                       # TLB misses on write requests
system.cpu.not_idle_fraction                        1                       # Percentage of non-idle cycles
system.cpu.numCycles                               20                       # number of cpu cycles simulated
system.cpu.numWorkItemsCompleted                    0                       # number of work items this cpu completed
system.cpu.numWorkItemsStarted                      0                       # number of work items this cpu started
system.cpu.num_busy_cycles                         20                       # Number of busy cycles
system.cpu.num_cc_register_writes                   2                       # number of times the CC registers were written
system.cpu.num_conditional_control_insts            0                       # number of instructions that are conditional controls
system.cpu.num_fp_alu_accesses                      0                       # Number of float alu accesses
system.cpu.num_fp_insts                             0                       # number of float instructions
system.cpu.num_fp_register_reads                    0                       # number of times the floating registers were read
system.cpu.num_fp_register_writes                   0                       # number of times the floating registers were written
system.cpu.num_func_calls                           1                       # number of times a function call or return occured
system.cpu.num_idle_cycles                          0                       # Number of idle cycles
system.cpu.num_int_alu_accesses                    18                       # Number of integer alu accesses
system.cpu.num_int_insts                           18                       # number of integer instructions
system.cpu.num_int_register_reads                  40                       # number of times the integer registers were read
system.cpu.num_int_register_writes                 16                       # number of times the integer registers were written
system.cpu.num_load_insts                           5                       # Number of load instructions
system.cpu.num_mem_refs                             6                       # number of memory refs
system.cpu.num_store_insts                          1                       # Number of store instructions
system.cpu.num_vec_alu_accesses                     0                       # Number of vector alu accesses
system.cpu.num_vec_insts                            0                       # number of vector instructions
system.cpu.num_vec_register_reads                   0                       # number of times the vector registers were read
system.cpu.num_vec_register_writes                  0                       # number of times the vector registers were written
system.cpu.op_class::No_OpClass                     0      0.00%      0.00% # Class of executed instruction
system.cpu.op_class::IntAlu                        12     66.67%     66.67% # Class of executed instruction
system.cpu.op_class::IntMult                        0      0.00%     66.67% # Class of executed instruction
system.cpu.op_class::IntDiv                         0      0.00%     66.67% # Class of executed instruction
system.cpu.op_class::FloatAdd                       0      0.00%     66.67% # Class of executed instruction
system.cpu.op_class::FloatCmp                       0      0.00%     66.67% # Class of executed instruction
system.cpu.op_class::FloatCvt                       0      0.00%     66.67% # Class of executed instruction
system.cpu.op_class::FloatMult                      0      0.00%     66.67% # Class of executed instruction
system.cpu.op_class::FloatMultAcc                   0      0.00%     66.67% # Class of executed instruction
system.cpu.op_class::FloatDiv                       0      0.00%     66.67% # Class of executed instruction
system.cpu.op_class::FloatMisc                      0      0.00%     66.67% # Class of executed instruction
system.cpu.op_class::FloatSqrt                      0      0.00%     66.67% # Class of executed instruction
system.cpu.op_class::SimdAdd                        0      0.00%     66.67% # Class of executed instruction
system.cpu.op_class::SimdAddAcc                     0      0.00%     66.67% # Class of executed instruction
system.cpu.op_class::SimdAlu                        0      0.00%     66.67% # Class of executed instruction
system.cpu.op_class::SimdCmp                        0      0.00%     66.67% # Class of executed instruction
system.cpu.op_class::SimdCvt                        0      0.00%     66.67% # Class of executed instruction
system.cpu.op_class::SimdMisc                       0      0.00%     66.67% # Class of executed instruction
system.cpu.op_class::SimdMult                       0      0.00%     66.67% # Class of executed instruction
system.cpu.op_class::SimdMultAcc                    0      0.00%     66.67% # Class of executed instruction
system.cpu.op_class::SimdShift                      0      0.00%     66.67% # Class of executed instruction
system.cpu.op_class::SimdShiftAcc                   0      0.00%     66.67% # Class of executed instruction
system.cpu.op_class::SimdDiv                        0      0.00%     66.67% # Class of executed instruction
system.cpu.op_class::SimdSqrt                       0      0.00%     66.67% # Class of executed instruction
system.cpu.op_class::SimdFloatAdd                   0      0.00%     66.67% # Class of executed instruction
system.cpu.op_class::SimdFloatAlu                   0      0.00%     66.67% # Class of executed instruction
system.cpu.op_class::SimdFloatCmp                   0      0.00%     66.67% # Class of executed instruction
system.cpu.op_class::SimdFloatCvt                   0      0.00%     66.67% # Class of executed instruction
system.cpu.op_class::SimdFloatDiv                   0      0.00%     66.67% # Class of executed instruction
system.cpu.op_class::SimdFloatMisc                  0      0.00%     66.67% # Class of executed instruction
system.cpu.op_class::SimdFloatMult                  0      0.00%     66.67% # Class of executed instruction
system.cpu.op_class::SimdFloatMultAcc               0      0.00%     66.67% # Class of executed instruction
system.cpu.op_class::SimdFloatSqrt                  0      0.00%     66.67% # Class of executed instruction
system.cpu.op_class::SimdReduceAdd                  0      0.00%     66.67% # Class of executed instruction
system.cpu.op_class::SimdReduceAlu                  0      0.00%     66.67% # Class of executed instruction
system.cpu.op_class::SimdReduceCmp                  0      0.00%     66.67% # Class of executed instruction
system.cpu.op_class::SimdFloatReduceAdd             0      0.00%     66.67% # Class of executed instruction
system.cpu.op_class::SimdFloatReduceCmp             0      0.00%     66.67% # Class of executed instruction
system.cpu.op_class::SimdAes                        0      0.00%     66.67% # Class of executed instruction
system.cpu.op_class::SimdAesMix                     0      0.00%     66.67% # Class of executed instruction
system.cpu.op_class::SimdSha1Hash                   0      0.00%     66.67% # Class of executed instruction
system.cpu.op_class::SimdSha1Hash2                  0      0.00%     66.67% # Class of executed instruction
system.cpu.op_class::SimdSha256Hash                 0      0.00%     66.67% # Class of executed instruction
system.cpu.op_class::SimdSha256Hash2                0      0.00%     66.67% # Class of executed instruction
system.cpu.op_class::SimdShaSigma2                  0      0.00%     66.67% # Class of executed instruction
system.cpu.op_class::SimdShaSigma3                  0      0.00%     66.67% # Class of executed instruction
system.cpu.op_class::SimdPredAlu                    0      0.00%     66.67% # Class of executed instruction
system.cpu.op_class::MemRead                        5     27.78%     94.44% # Class of executed instruction
system.cpu.op_class::MemWrite                       1      5.56%    100.00% # Class of executed instruction
system.cpu.op_class::FloatMemRead                   0      0.00%    100.00% # Class of executed instruction
system.cpu.op_class::FloatMemWrite                  0      0.00%    100.00% # Class of executed instruction
system.cpu.op_class::IprAccess                      0      0.00%    100.00% # Class of executed instruction
system.cpu.op_class::InstPrefetch                   0      0.00%    100.00% # Class of executed instruction
system.cpu.op_class::total                         18                       # Class of executed instruction
system.cpu.workload.numSyscalls                     0                       # Number of system calls
system.l2.prefetcher.num_hwpf_issued            15529                       # number of hwpf issued
system.l2.prefetcher.pfBufferHit                    0                       # number of redundant prefetches already in prefetch queue
system.l2.prefetcher.pfIdentified               15529                       # number of prefetch candidates identified
system.l2.prefetcher.pfInCache                      0                       # number of redundant prefetches already in cache/mshr dropped
system.l2.prefetcher.pfRemovedFull                  0                       # number of prefetches dropped due to prefetch queue size
system.l2.prefetcher.pfSpanPage                  1563                       # number of prefetches that crossed the page
system.membus.snoop_filter.hit_multi_requests            0                       # Number of requests hitting in the snoop filter with multiple (>1) holders of the requested data.
system.membus.snoop_filter.hit_multi_snoops            0                       # Number of snoops hitting in the snoop filter with multiple (>1) holders of the requested data.
system.membus.snoop_filter.hit_single_requests       153701                       # Number of requests hitting in the snoop filter with a single holder of the requested data.
system.membus.snoop_filter.hit_single_snoops            0                       # Number of snoops hitting in the snoop filter with a single holder of the requested data.
system.membus.snoop_filter.tot_requests        311787                       # Total number of requests made to the snoop filter.
system.membus.snoop_filter.tot_snoops               0                       # Total number of snoops made to the snoop filter.
system.switch_cpus.branchPred.BTBCorrect            0                       # Number of correct BTB predictions (this stat may not work properly.
system.switch_cpus.branchPred.BTBHitPct      0.000000                       # BTB Hit Percentage
system.switch_cpus.branchPred.BTBHits               0                       # Number of BTB hits
system.switch_cpus.branchPred.BTBLookups      1227920                       # Number of BTB lookups
system.switch_cpus.branchPred.RASInCorrect           20                       # Number of incorrect RAS predictions.
system.switch_cpus.branchPred.condIncorrect        60205                       # Number of conditional branches incorrect
system.switch_cpus.branchPred.condPredicted      1259050                       # Number of conditional branches predicted
system.switch_cpus.branchPred.indirectHits       952339                       # Number of indirect target hits.
system.switch_cpus.branchPred.indirectLookups      1227920                       # Number of indirect predictor lookups.
system.switch_cpus.branchPred.indirectMisses       275581                       # Number of indirect misses.
system.switch_cpus.branchPred.lookups         1323656                       # Number of BP lookups
system.switch_cpus.branchPred.usedRAS           32281                       # Number of times the RAS was used to get a target.
system.switch_cpus.branchPredindirectMispredicted        12285                       # Number of mispredicted indirect branches.
system.switch_cpus.cc_regfile_reads           6134145                       # number of cc regfile reads
system.switch_cpus.cc_regfile_writes          4077712                       # number of cc regfile writes
system.switch_cpus.commit.amos                      0                       # Number of atomic instructions committed
system.switch_cpus.commit.branchMispredicts        60250                       # The number of times a branch was mispredicted
system.switch_cpus.commit.branches            1012410                       # Number of branches committed
system.switch_cpus.commit.bw_lim_events       1361331                       # number cycles where commit BW limit reached
system.switch_cpus.commit.commitSquashedInsts      2112026                       # The number of squashed insts skipped by commit
system.switch_cpus.commit.committedInsts     10000003                       # Number of instructions committed
system.switch_cpus.commit.committedOps       16699628                       # Number of ops (including micro ops) committed
system.switch_cpus.commit.committed_per_cycle::samples     16275111                       # Number of insts commited each cycle
system.switch_cpus.commit.committed_per_cycle::mean     1.026084                       # Number of insts commited each cycle
system.switch_cpus.commit.committed_per_cycle::stdev     2.383869                       # Number of insts commited each cycle
system.switch_cpus.commit.committed_per_cycle::underflows            0      0.00%      0.00% # Number of insts commited each cycle
system.switch_cpus.commit.committed_per_cycle::0     12768823     78.46%     78.46% # Number of insts commited each cycle
system.switch_cpus.commit.committed_per_cycle::1       963893      5.92%     84.38% # Number of insts commited each cycle
system.switch_cpus.commit.committed_per_cycle::2       121086      0.74%     85.12% # Number of insts commited each cycle
system.switch_cpus.commit.committed_per_cycle::3       188760      1.16%     86.28% # Number of insts commited each cycle
system.switch_cpus.commit.committed_per_cycle::4       491199      3.02%     89.30% # Number of insts commited each cycle
system.switch_cpus.commit.committed_per_cycle::5       259697      1.60%     90.90% # Number of insts commited each cycle
system.switch_cpus.commit.committed_per_cycle::6        68900      0.42%     91.32% # Number of insts commited each cycle
system.switch_cpus.commit.committed_per_cycle::7        51422      0.32%     91.64% # Number of insts commited each cycle
system.switch_cpus.commit.committed_per_cycle::8      1361331      8.36%    100.00% # Number of insts commited each cycle
system.switch_cpus.commit.committed_per_cycle::overflows            0      0.00%    100.00% # Number of insts commited each cycle
system.switch_cpus.commit.committed_per_cycle::min_value            0                       # Number of insts commited each cycle
system.switch_cpus.commit.committed_per_cycle::max_value            8                       # Number of insts commited each cycle
system.switch_cpus.commit.committed_per_cycle::total     16275111                       # Number of insts commited each cycle
system.switch_cpus.commit.fp_insts            9250008                       # Number of committed floating point instructions.
system.switch_cpus.commit.function_calls        18108                       # Number of function calls committed.
system.switch_cpus.commit.int_insts           9386149                       # Number of committed integer instructions.
system.switch_cpus.commit.loads               2651089                       # Number of loads committed
system.switch_cpus.commit.membars                   0                       # Number of memory barriers committed
system.switch_cpus.commit.op_class_0::No_OpClass        28068      0.17%      0.17% # Class of committed instruction
system.switch_cpus.commit.op_class_0::IntAlu      7077496     42.38%     42.55% # Class of committed instruction
system.switch_cpus.commit.op_class_0::IntMult           15      0.00%     42.55% # Class of committed instruction
system.switch_cpus.commit.op_class_0::IntDiv           77      0.00%     42.55% # Class of committed instruction
system.switch_cpus.commit.op_class_0::FloatAdd       834706      5.00%     47.55% # Class of committed instruction
system.switch_cpus.commit.op_class_0::FloatCmp            0      0.00%     47.55% # Class of committed instruction
system.switch_cpus.commit.op_class_0::FloatCvt            0      0.00%     47.55% # Class of committed instruction
system.switch_cpus.commit.op_class_0::FloatMult            0      0.00%     47.55% # Class of committed instruction
system.switch_cpus.commit.op_class_0::FloatMultAcc            0      0.00%     47.55% # Class of committed instruction
system.switch_cpus.commit.op_class_0::FloatDiv            0      0.00%     47.55% # Class of committed instruction
system.switch_cpus.commit.op_class_0::FloatMisc            0      0.00%     47.55% # Class of committed instruction
system.switch_cpus.commit.op_class_0::FloatSqrt            0      0.00%     47.55% # Class of committed instruction
system.switch_cpus.commit.op_class_0::SimdAdd            0      0.00%     47.55% # Class of committed instruction
system.switch_cpus.commit.op_class_0::SimdAddAcc            0      0.00%     47.55% # Class of committed instruction
system.switch_cpus.commit.op_class_0::SimdAlu      1472440      8.82%     56.37% # Class of committed instruction
system.switch_cpus.commit.op_class_0::SimdCmp            0      0.00%     56.37% # Class of committed instruction
system.switch_cpus.commit.op_class_0::SimdCvt            6      0.00%     56.37% # Class of committed instruction
system.switch_cpus.commit.op_class_0::SimdMisc        40222      0.24%     56.61% # Class of committed instruction
system.switch_cpus.commit.op_class_0::SimdMult            0      0.00%     56.61% # Class of committed instruction
system.switch_cpus.commit.op_class_0::SimdMultAcc            0      0.00%     56.61% # Class of committed instruction
system.switch_cpus.commit.op_class_0::SimdShift            0      0.00%     56.61% # Class of committed instruction
system.switch_cpus.commit.op_class_0::SimdShiftAcc            0      0.00%     56.61% # Class of committed instruction
system.switch_cpus.commit.op_class_0::SimdDiv            0      0.00%     56.61% # Class of committed instruction
system.switch_cpus.commit.op_class_0::SimdSqrt            0      0.00%     56.61% # Class of committed instruction
system.switch_cpus.commit.op_class_0::SimdFloatAdd      1392117      8.34%     64.94% # Class of committed instruction
system.switch_cpus.commit.op_class_0::SimdFloatAlu            0      0.00%     64.94% # Class of committed instruction
system.switch_cpus.commit.op_class_0::SimdFloatCmp        20118      0.12%     65.06% # Class of committed instruction
system.switch_cpus.commit.op_class_0::SimdFloatCvt      1492478      8.94%     74.00% # Class of committed instruction
system.switch_cpus.commit.op_class_0::SimdFloatDiv            0      0.00%     74.00% # Class of committed instruction
system.switch_cpus.commit.op_class_0::SimdFloatMisc            0      0.00%     74.00% # Class of committed instruction
system.switch_cpus.commit.op_class_0::SimdFloatMult      1432276      8.58%     82.58% # Class of committed instruction
system.switch_cpus.commit.op_class_0::SimdFloatMultAcc            0      0.00%     82.58% # Class of committed instruction
system.switch_cpus.commit.op_class_0::SimdFloatSqrt            0      0.00%     82.58% # Class of committed instruction
system.switch_cpus.commit.op_class_0::SimdReduceAdd            0      0.00%     82.58% # Class of committed instruction
system.switch_cpus.commit.op_class_0::SimdReduceAlu            0      0.00%     82.58% # Class of committed instruction
system.switch_cpus.commit.op_class_0::SimdReduceCmp            0      0.00%     82.58% # Class of committed instruction
system.switch_cpus.commit.op_class_0::SimdFloatReduceAdd            0      0.00%     82.58% # Class of committed instruction
system.switch_cpus.commit.op_class_0::SimdFloatReduceCmp            0      0.00%     82.58% # Class of committed instruction
system.switch_cpus.commit.op_class_0::SimdAes            0      0.00%     82.58% # Class of committed instruction
system.switch_cpus.commit.op_class_0::SimdAesMix            0      0.00%     82.58% # Class of committed instruction
system.switch_cpus.commit.op_class_0::SimdSha1Hash            0      0.00%     82.58% # Class of committed instruction
system.switch_cpus.commit.op_class_0::SimdSha1Hash2            0      0.00%     82.58% # Class of committed instruction
system.switch_cpus.commit.op_class_0::SimdSha256Hash            0      0.00%     82.58% # Class of committed instruction
system.switch_cpus.commit.op_class_0::SimdSha256Hash2            0      0.00%     82.58% # Class of committed instruction
system.switch_cpus.commit.op_class_0::SimdShaSigma2            0      0.00%     82.58% # Class of committed instruction
system.switch_cpus.commit.op_class_0::SimdShaSigma3            0      0.00%     82.58% # Class of committed instruction
system.switch_cpus.commit.op_class_0::SimdPredAlu            0      0.00%     82.58% # Class of committed instruction
system.switch_cpus.commit.op_class_0::MemRead       789848      4.73%     87.31% # Class of committed instruction
system.switch_cpus.commit.op_class_0::MemWrite       194915      1.17%     88.47% # Class of committed instruction
system.switch_cpus.commit.op_class_0::FloatMemRead      1861241     11.15%     99.62% # Class of committed instruction
system.switch_cpus.commit.op_class_0::FloatMemWrite        63605      0.38%    100.00% # Class of committed instruction
system.switch_cpus.commit.op_class_0::IprAccess            0      0.00%    100.00% # Class of committed instruction
system.switch_cpus.commit.op_class_0::InstPrefetch            0      0.00%    100.00% # Class of committed instruction
system.switch_cpus.commit.op_class_0::total     16699628                       # Class of committed instruction
system.switch_cpus.commit.refs                2909609                       # Number of memory references committed
system.switch_cpus.commit.swp_count                 0                       # Number of s/w prefetches committed
system.switch_cpus.commit.vec_insts                 0                       # Number of committed Vector instructions.
system.switch_cpus.committedInsts            10000003                       # Number of Instructions Simulated
system.switch_cpus.committedOps              16699628                       # Number of Ops (including micro ops) Simulated
system.switch_cpus.cpi                       1.660372                       # CPI: Cycles Per Instruction
system.switch_cpus.cpi_total                 1.660372                       # CPI: Total CPI of All Threads
system.switch_cpus.decode.BlockedCycles      12746578                       # Number of cycles decode is blocked
system.switch_cpus.decode.DecodedInsts       19542311                       # Number of instructions handled by decode
system.switch_cpus.decode.IdleCycles          1011197                       # Number of cycles decode is idle
system.switch_cpus.decode.RunCycles           1880607                       # Number of cycles decode is running
system.switch_cpus.decode.SquashCycles          60450                       # Number of cycles decode is squashing
system.switch_cpus.decode.UnblockCycles        875456                       # Number of cycles decode is unblocking
system.switch_cpus.dtb.rdAccesses             2991297                       # TLB accesses on read requests
system.switch_cpus.dtb.rdMisses                 10896                       # TLB misses on read requests
system.switch_cpus.dtb.wrAccesses              284990                       # TLB accesses on write requests
system.switch_cpus.dtb.wrMisses                   599                       # TLB misses on write requests
system.switch_cpus.fetch.Branches             1323656                       # Number of branches that fetch encountered
system.switch_cpus.fetch.CacheLines           1494962                       # Number of cache lines fetched
system.switch_cpus.fetch.Cycles              14973155                       # Number of cycles fetch has run and was not squashing or blocked
system.switch_cpus.fetch.IcacheSquashes         12831                       # Number of outstanding Icache misses that were squashed
system.switch_cpus.fetch.Insts               12356951                       # Number of instructions fetch has processed
system.switch_cpus.fetch.MiscStallCycles           42                       # Number of cycles fetch has spent waiting on interrupts, or bad addresses, or out of MSHRs
system.switch_cpus.fetch.PendingTrapStallCycles         1682                       # Number of stall cycles due to pending traps
system.switch_cpus.fetch.SquashCycles          120900                       # Number of cycles fetch has spent squashing
system.switch_cpus.fetch.branchRate          0.079720                       # Number of branch fetches per cycle
system.switch_cpus.fetch.icacheStallCycles      1538960                       # Number of cycles fetch is stalled on an Icache miss
system.switch_cpus.fetch.predictedBranches       984620                       # Number of branches that fetch has predicted taken
system.switch_cpus.fetch.rate                0.744228                       # Number of inst fetches per cycle
system.switch_cpus.fetch.rateDist::samples     16574289                       # Number of instructions fetched each cycle (Total)
system.switch_cpus.fetch.rateDist::mean      1.248836                       # Number of instructions fetched each cycle (Total)
system.switch_cpus.fetch.rateDist::stdev     2.653200                       # Number of instructions fetched each cycle (Total)
system.switch_cpus.fetch.rateDist::underflows            0      0.00%      0.00% # Number of instructions fetched each cycle (Total)
system.switch_cpus.fetch.rateDist::0         13046606     78.72%     78.72% # Number of instructions fetched each cycle (Total)
system.switch_cpus.fetch.rateDist::1           310057      1.87%     80.59% # Number of instructions fetched each cycle (Total)
system.switch_cpus.fetch.rateDist::2           190403      1.15%     81.74% # Number of instructions fetched each cycle (Total)
system.switch_cpus.fetch.rateDist::3           215218      1.30%     83.03% # Number of instructions fetched each cycle (Total)
system.switch_cpus.fetch.rateDist::4           337262      2.03%     85.07% # Number of instructions fetched each cycle (Total)
system.switch_cpus.fetch.rateDist::5           275491      1.66%     86.73% # Number of instructions fetched each cycle (Total)
system.switch_cpus.fetch.rateDist::6           428014      2.58%     89.31% # Number of instructions fetched each cycle (Total)
system.switch_cpus.fetch.rateDist::7           102435      0.62%     89.93% # Number of instructions fetched each cycle (Total)
system.switch_cpus.fetch.rateDist::8          1668803     10.07%    100.00% # Number of instructions fetched each cycle (Total)
system.switch_cpus.fetch.rateDist::overflows            0      0.00%    100.00% # Number of instructions fetched each cycle (Total)
system.switch_cpus.fetch.rateDist::min_value            0                       # Number of instructions fetched each cycle (Total)
system.switch_cpus.fetch.rateDist::max_value            8                       # Number of instructions fetched each cycle (Total)
system.switch_cpus.fetch.rateDist::total     16574289                       # Number of instructions fetched each cycle (Total)
system.switch_cpus.fp_regfile_reads          16012556                       # number of floating regfile reads
system.switch_cpus.fp_regfile_writes          9296333                       # number of floating regfile writes
system.switch_cpus.idleCycles                   29433                       # Total number of cycles that the CPU has spent unscheduled due to idling
system.switch_cpus.iew.branchMispredicts        67071                       # Number of branch mispredicts detected at execute
system.switch_cpus.iew.exec_branches          1083582                       # Number of branches executed
system.switch_cpus.iew.exec_nop                     0                       # number of nop insts executed
system.switch_cpus.iew.exec_rate             1.086989                       # Inst execution rate
system.switch_cpus.iew.exec_refs              3302306                       # number of memory reference insts executed
system.switch_cpus.iew.exec_stores             284981                       # Number of stores executed
system.switch_cpus.iew.exec_swp                     0                       # number of swp insts executed
system.switch_cpus.iew.iewBlockCycles         7173527                       # Number of cycles IEW is blocking
system.switch_cpus.iew.iewDispLoadInsts       3048149                       # Number of dispatched load instructions
system.switch_cpus.iew.iewDispNonSpecInsts            0                       # Number of dispatched non-speculative instructions
system.switch_cpus.iew.iewDispSquashedInsts         7435                       # Number of squashed instructions skipped by dispatch
system.switch_cpus.iew.iewDispStoreInsts       316661                       # Number of dispatched store instructions
system.switch_cpus.iew.iewDispatchedInsts     18809575                       # Number of instructions dispatched to IQ
system.switch_cpus.iew.iewExecLoadInsts       3017325                       # Number of load instructions executed
system.switch_cpus.iew.iewExecSquashedInsts       112884                       # Number of squashed instructions skipped in execute
system.switch_cpus.iew.iewExecutedInsts      18048065                       # Number of executed instructions
system.switch_cpus.iew.iewIQFullEvents          74607                       # Number of times the IQ has become full, causing a stall
system.switch_cpus.iew.iewIdleCycles                0                       # Number of cycles IEW is idle
system.switch_cpus.iew.iewLSQFullEvents        514873                       # Number of times the LSQ has become full, causing a stall
system.switch_cpus.iew.iewSquashCycles          60450                       # Number of cycles IEW is squashing
system.switch_cpus.iew.iewUnblockCycles        635210                       # Number of cycles IEW is unblocking
system.switch_cpus.iew.lsq.thread0.blockedLoads            0                       # Number of blocked loads due to partial load-store forwarding
system.switch_cpus.iew.lsq.thread0.cacheBlocked        19521                       # Number of times an access to memory failed due to the cache being blocked
system.switch_cpus.iew.lsq.thread0.forwLoads        28556                       # Number of loads that had data forwarded from stores
system.switch_cpus.iew.lsq.thread0.ignoredResponses          226                       # Number of memory responses ignored because the instruction is squashed
system.switch_cpus.iew.lsq.thread0.invAddrLoads            0                       # Number of loads ignored due to an invalid address
system.switch_cpus.iew.lsq.thread0.invAddrSwpfs            0                       # Number of software prefetches ignored due to an invalid address
system.switch_cpus.iew.lsq.thread0.memOrderViolation          217                       # Number of memory ordering violations
system.switch_cpus.iew.lsq.thread0.rescheduledLoads           38                       # Number of loads that were rescheduled
system.switch_cpus.iew.lsq.thread0.squashedLoads       397037                       # Number of loads squashed
system.switch_cpus.iew.lsq.thread0.squashedStores        58139                       # Number of stores squashed
system.switch_cpus.iew.memOrderViolationEvents          217                       # Number of memory order violations
system.switch_cpus.iew.predictedNotTakenIncorrect        19260                       # Number of branches that were predicted not taken incorrectly
system.switch_cpus.iew.predictedTakenIncorrect        47811                       # Number of branches that were predicted taken incorrectly
system.switch_cpus.iew.wb_consumers          23579655                       # num instructions consuming a value
system.switch_cpus.iew.wb_count              17828153                       # cumulative count of insts written-back
system.switch_cpus.iew.wb_fanout             0.589811                       # average fanout of values written-back
system.switch_cpus.iew.wb_producers          13907547                       # num instructions producing a value
system.switch_cpus.iew.wb_rate               1.073744                       # insts written-back per cycle
system.switch_cpus.iew.wb_sent               17853181                       # cumulative count of insts sent to commit
system.switch_cpus.int_regfile_reads         15265694                       # number of integer regfile reads
system.switch_cpus.int_regfile_writes         7131908                       # number of integer regfile writes
system.switch_cpus.ipc                       0.602275                       # IPC: Instructions Per Cycle
system.switch_cpus.ipc_total                 0.602275                       # IPC: Total IPC of All Threads
system.switch_cpus.iq.FU_type_0::No_OpClass        35239      0.19%      0.19% # Type of FU issued
system.switch_cpus.iq.FU_type_0::IntAlu       7951918     43.79%     43.98% # Type of FU issued
system.switch_cpus.iq.FU_type_0::IntMult           31      0.00%     43.98% # Type of FU issued
system.switch_cpus.iq.FU_type_0::IntDiv            80      0.00%     43.98% # Type of FU issued
system.switch_cpus.iq.FU_type_0::FloatAdd       898049      4.94%     48.93% # Type of FU issued
system.switch_cpus.iq.FU_type_0::FloatCmp            0      0.00%     48.93% # Type of FU issued
system.switch_cpus.iq.FU_type_0::FloatCvt            0      0.00%     48.93% # Type of FU issued
system.switch_cpus.iq.FU_type_0::FloatMult            0      0.00%     48.93% # Type of FU issued
system.switch_cpus.iq.FU_type_0::FloatMultAcc            0      0.00%     48.93% # Type of FU issued
system.switch_cpus.iq.FU_type_0::FloatDiv            0      0.00%     48.93% # Type of FU issued
system.switch_cpus.iq.FU_type_0::FloatMisc            0      0.00%     48.93% # Type of FU issued
system.switch_cpus.iq.FU_type_0::FloatSqrt            0      0.00%     48.93% # Type of FU issued
system.switch_cpus.iq.FU_type_0::SimdAdd            0      0.00%     48.93% # Type of FU issued
system.switch_cpus.iq.FU_type_0::SimdAddAcc            0      0.00%     48.93% # Type of FU issued
system.switch_cpus.iq.FU_type_0::SimdAlu      1536407      8.46%     57.39% # Type of FU issued
system.switch_cpus.iq.FU_type_0::SimdCmp            0      0.00%     57.39% # Type of FU issued
system.switch_cpus.iq.FU_type_0::SimdCvt           14      0.00%     57.39% # Type of FU issued
system.switch_cpus.iq.FU_type_0::SimdMisc        41289      0.23%     57.61% # Type of FU issued
system.switch_cpus.iq.FU_type_0::SimdMult            0      0.00%     57.61% # Type of FU issued
system.switch_cpus.iq.FU_type_0::SimdMultAcc            0      0.00%     57.61% # Type of FU issued
system.switch_cpus.iq.FU_type_0::SimdShift            0      0.00%     57.61% # Type of FU issued
system.switch_cpus.iq.FU_type_0::SimdShiftAcc            0      0.00%     57.61% # Type of FU issued
system.switch_cpus.iq.FU_type_0::SimdDiv            0      0.00%     57.61% # Type of FU issued
system.switch_cpus.iq.FU_type_0::SimdSqrt            0      0.00%     57.61% # Type of FU issued
system.switch_cpus.iq.FU_type_0::SimdFloatAdd      1394858      7.68%     65.29% # Type of FU issued
system.switch_cpus.iq.FU_type_0::SimdFloatAlu            0      0.00%     65.29% # Type of FU issued
system.switch_cpus.iq.FU_type_0::SimdFloatCmp        20122      0.11%     65.40% # Type of FU issued
system.switch_cpus.iq.FU_type_0::SimdFloatCvt      1498759      8.25%     73.66% # Type of FU issued
system.switch_cpus.iq.FU_type_0::SimdFloatDiv            0      0.00%     73.66% # Type of FU issued
system.switch_cpus.iq.FU_type_0::SimdFloatMisc            0      0.00%     73.66% # Type of FU issued
system.switch_cpus.iq.FU_type_0::SimdFloatMult      1436008      7.91%     81.56% # Type of FU issued
system.switch_cpus.iq.FU_type_0::SimdFloatMultAcc            0      0.00%     81.56% # Type of FU issued
system.switch_cpus.iq.FU_type_0::SimdFloatSqrt            0      0.00%     81.56% # Type of FU issued
system.switch_cpus.iq.FU_type_0::SimdReduceAdd            0      0.00%     81.56% # Type of FU issued
system.switch_cpus.iq.FU_type_0::SimdReduceAlu            0      0.00%     81.56% # Type of FU issued
system.switch_cpus.iq.FU_type_0::SimdReduceCmp            0      0.00%     81.56% # Type of FU issued
system.switch_cpus.iq.FU_type_0::SimdFloatReduceAdd            0      0.00%     81.56% # Type of FU issued
system.switch_cpus.iq.FU_type_0::SimdFloatReduceCmp            0      0.00%     81.56% # Type of FU issued
system.switch_cpus.iq.FU_type_0::SimdAes            0      0.00%     81.56% # Type of FU issued
system.switch_cpus.iq.FU_type_0::SimdAesMix            0      0.00%     81.56% # Type of FU issued
system.switch_cpus.iq.FU_type_0::SimdSha1Hash            0      0.00%     81.56% # Type of FU issued
system.switch_cpus.iq.FU_type_0::SimdSha1Hash2            0      0.00%     81.56% # Type of FU issued
system.switch_cpus.iq.FU_type_0::SimdSha256Hash            0      0.00%     81.56% # Type of FU issued
system.switch_cpus.iq.FU_type_0::SimdSha256Hash2            0      0.00%     81.56% # Type of FU issued
system.switch_cpus.iq.FU_type_0::SimdShaSigma2            0      0.00%     81.56% # Type of FU issued
system.switch_cpus.iq.FU_type_0::SimdShaSigma3            0      0.00%     81.56% # Type of FU issued
system.switch_cpus.iq.FU_type_0::SimdPredAlu            0      0.00%     81.56% # Type of FU issued
system.switch_cpus.iq.FU_type_0::MemRead      1056391      5.82%     87.38% # Type of FU issued
system.switch_cpus.iq.FU_type_0::MemWrite       224357      1.24%     88.62% # Type of FU issued
system.switch_cpus.iq.FU_type_0::FloatMemRead      2003386     11.03%     99.65% # Type of FU issued
system.switch_cpus.iq.FU_type_0::FloatMemWrite        64048      0.35%    100.00% # Type of FU issued
system.switch_cpus.iq.FU_type_0::IprAccess            0      0.00%    100.00% # Type of FU issued
system.switch_cpus.iq.FU_type_0::InstPrefetch            0      0.00%    100.00% # Type of FU issued
system.switch_cpus.iq.FU_type_0::total       18160956                       # Type of FU issued
system.switch_cpus.iq.fp_alu_accesses         9733551                       # Number of floating point alu accesses
system.switch_cpus.iq.fp_inst_queue_reads     19289224                       # Number of floating instruction queue reads
system.switch_cpus.iq.fp_inst_queue_wakeup_accesses      9408996                       # Number of floating instruction queue wakeup accesses
system.switch_cpus.iq.fp_inst_queue_writes     10119644                       # Number of floating instruction queue writes
system.switch_cpus.iq.fu_busy_cnt              312159                       # FU busy when requested
system.switch_cpus.iq.fu_busy_rate           0.017188                       # FU busy rate (busy events/executed inst)
system.switch_cpus.iq.fu_full::No_OpClass            0      0.00%      0.00% # attempts to use FU when none available
system.switch_cpus.iq.fu_full::IntAlu          106858     34.23%     34.23% # attempts to use FU when none available
system.switch_cpus.iq.fu_full::IntMult              0      0.00%     34.23% # attempts to use FU when none available
system.switch_cpus.iq.fu_full::IntDiv               0      0.00%     34.23% # attempts to use FU when none available
system.switch_cpus.iq.fu_full::FloatAdd             0      0.00%     34.23% # attempts to use FU when none available
system.switch_cpus.iq.fu_full::FloatCmp             0      0.00%     34.23% # attempts to use FU when none available
system.switch_cpus.iq.fu_full::FloatCvt             0      0.00%     34.23% # attempts to use FU when none available
system.switch_cpus.iq.fu_full::FloatMult            0      0.00%     34.23% # attempts to use FU when none available
system.switch_cpus.iq.fu_full::FloatMultAcc            0      0.00%     34.23% # attempts to use FU when none available
system.switch_cpus.iq.fu_full::FloatDiv             0      0.00%     34.23% # attempts to use FU when none available
system.switch_cpus.iq.fu_full::FloatMisc            0      0.00%     34.23% # attempts to use FU when none available
system.switch_cpus.iq.fu_full::FloatSqrt            0      0.00%     34.23% # attempts to use FU when none available
system.switch_cpus.iq.fu_full::SimdAdd              0      0.00%     34.23% # attempts to use FU when none available
system.switch_cpus.iq.fu_full::SimdAddAcc            0      0.00%     34.23% # attempts to use FU when none available
system.switch_cpus.iq.fu_full::SimdAlu          49979     16.01%     50.24% # attempts to use FU when none available
system.switch_cpus.iq.fu_full::SimdCmp              0      0.00%     50.24% # attempts to use FU when none available
system.switch_cpus.iq.fu_full::SimdCvt              0      0.00%     50.24% # attempts to use FU when none available
system.switch_cpus.iq.fu_full::SimdMisc             0      0.00%     50.24% # attempts to use FU when none available
system.switch_cpus.iq.fu_full::SimdMult             0      0.00%     50.24% # attempts to use FU when none available
system.switch_cpus.iq.fu_full::SimdMultAcc            0      0.00%     50.24% # attempts to use FU when none available
system.switch_cpus.iq.fu_full::SimdShift            0      0.00%     50.24% # attempts to use FU when none available
system.switch_cpus.iq.fu_full::SimdShiftAcc            0      0.00%     50.24% # attempts to use FU when none available
system.switch_cpus.iq.fu_full::SimdDiv              0      0.00%     50.24% # attempts to use FU when none available
system.switch_cpus.iq.fu_full::SimdSqrt             0      0.00%     50.24% # attempts to use FU when none available
system.switch_cpus.iq.fu_full::SimdFloatAdd        66223     21.21%     71.46% # attempts to use FU when none available
system.switch_cpus.iq.fu_full::SimdFloatAlu            0      0.00%     71.46% # attempts to use FU when none available
system.switch_cpus.iq.fu_full::SimdFloatCmp            0      0.00%     71.46% # attempts to use FU when none available
system.switch_cpus.iq.fu_full::SimdFloatCvt        18626      5.97%     77.42% # attempts to use FU when none available
system.switch_cpus.iq.fu_full::SimdFloatDiv            0      0.00%     77.42% # attempts to use FU when none available
system.switch_cpus.iq.fu_full::SimdFloatMisc            0      0.00%     77.42% # attempts to use FU when none available
system.switch_cpus.iq.fu_full::SimdFloatMult         1580      0.51%     77.93% # attempts to use FU when none available
system.switch_cpus.iq.fu_full::SimdFloatMultAcc            0      0.00%     77.93% # attempts to use FU when none available
system.switch_cpus.iq.fu_full::SimdFloatSqrt            0      0.00%     77.93% # attempts to use FU when none available
system.switch_cpus.iq.fu_full::SimdReduceAdd            0      0.00%     77.93% # attempts to use FU when none available
system.switch_cpus.iq.fu_full::SimdReduceAlu            0      0.00%     77.93% # attempts to use FU when none available
system.switch_cpus.iq.fu_full::SimdReduceCmp            0      0.00%     77.93% # attempts to use FU when none available
system.switch_cpus.iq.fu_full::SimdFloatReduceAdd            0      0.00%     77.93% # attempts to use FU when none available
system.switch_cpus.iq.fu_full::SimdFloatReduceCmp            0      0.00%     77.93% # attempts to use FU when none available
system.switch_cpus.iq.fu_full::SimdAes              0      0.00%     77.93% # attempts to use FU when none available
system.switch_cpus.iq.fu_full::SimdAesMix            0      0.00%     77.93% # attempts to use FU when none available
system.switch_cpus.iq.fu_full::SimdSha1Hash            0      0.00%     77.93% # attempts to use FU when none available
system.switch_cpus.iq.fu_full::SimdSha1Hash2            0      0.00%     77.93% # attempts to use FU when none available
system.switch_cpus.iq.fu_full::SimdSha256Hash            0      0.00%     77.93% # attempts to use FU when none available
system.switch_cpus.iq.fu_full::SimdSha256Hash2            0      0.00%     77.93% # attempts to use FU when none available
system.switch_cpus.iq.fu_full::SimdShaSigma2            0      0.00%     77.93% # attempts to use FU when none available
system.switch_cpus.iq.fu_full::SimdShaSigma3            0      0.00%     77.93% # attempts to use FU when none available
system.switch_cpus.iq.fu_full::SimdPredAlu            0      0.00%     77.93% # attempts to use FU when none available
system.switch_cpus.iq.fu_full::MemRead          21351      6.84%     84.77% # attempts to use FU when none available
system.switch_cpus.iq.fu_full::MemWrite          4137      1.33%     86.10% # attempts to use FU when none available
system.switch_cpus.iq.fu_full::FloatMemRead        43349     13.89%     99.98% # attempts to use FU when none available
system.switch_cpus.iq.fu_full::FloatMemWrite           56      0.02%    100.00% # attempts to use FU when none available
system.switch_cpus.iq.fu_full::IprAccess            0      0.00%    100.00% # attempts to use FU when none available
system.switch_cpus.iq.fu_full::InstPrefetch            0      0.00%    100.00% # attempts to use FU when none available
system.switch_cpus.iq.int_alu_accesses        8704325                       # Number of integer alu accesses
system.switch_cpus.iq.int_inst_queue_reads     33951552                       # Number of integer instruction queue reads
system.switch_cpus.iq.int_inst_queue_wakeup_accesses      8419157                       # Number of integer instruction queue wakeup accesses
system.switch_cpus.iq.int_inst_queue_writes     10799956                       # Number of integer instruction queue writes
system.switch_cpus.iq.iqInstsAdded           18809575                       # Number of instructions added to the IQ (excludes non-spec)
system.switch_cpus.iq.iqInstsIssued          18160956                       # Number of instructions issued
system.switch_cpus.iq.iqSquashedInstsExamined      2109811                       # Number of squashed instructions iterated over during squash; mainly for profiling
system.switch_cpus.iq.iqSquashedInstsIssued        32423                       # Number of squashed instructions issued
system.switch_cpus.iq.iqSquashedOperandsExamined      3238018                       # Number of squashed operands that are examined and possibly removed from graph
system.switch_cpus.iq.issued_per_cycle::samples     16574289                       # Number of insts issued each cycle
system.switch_cpus.iq.issued_per_cycle::mean     1.095731                       # Number of insts issued each cycle
system.switch_cpus.iq.issued_per_cycle::stdev     1.937270                       # Number of insts issued each cycle
system.switch_cpus.iq.issued_per_cycle::underflows            0      0.00%      0.00% # Number of insts issued each cycle
system.switch_cpus.iq.issued_per_cycle::0     11026289     66.53%     66.53% # Number of insts issued each cycle
system.switch_cpus.iq.issued_per_cycle::1      1391379      8.39%     74.92% # Number of insts issued each cycle
system.switch_cpus.iq.issued_per_cycle::2      1038274      6.26%     81.19% # Number of insts issued each cycle
system.switch_cpus.iq.issued_per_cycle::3       880283      5.31%     86.50% # Number of insts issued each cycle
system.switch_cpus.iq.issued_per_cycle::4       754921      4.55%     91.05% # Number of insts issued each cycle
system.switch_cpus.iq.issued_per_cycle::5       536406      3.24%     94.29% # Number of insts issued each cycle
system.switch_cpus.iq.issued_per_cycle::6       453720      2.74%     97.03% # Number of insts issued each cycle
system.switch_cpus.iq.issued_per_cycle::7       315990      1.91%     98.93% # Number of insts issued each cycle
system.switch_cpus.iq.issued_per_cycle::8       177027      1.07%    100.00% # Number of insts issued each cycle
system.switch_cpus.iq.issued_per_cycle::overflows            0      0.00%    100.00% # Number of insts issued each cycle
system.switch_cpus.iq.issued_per_cycle::min_value            0                       # Number of insts issued each cycle
system.switch_cpus.iq.issued_per_cycle::max_value            8                       # Number of insts issued each cycle
system.switch_cpus.iq.issued_per_cycle::total     16574289                       # Number of insts issued each cycle
system.switch_cpus.iq.rate                   1.093788                       # Inst issue rate
system.switch_cpus.iq.vec_alu_accesses              0                       # Number of vector alu accesses
system.switch_cpus.iq.vec_inst_queue_reads            0                       # Number of vector instruction queue reads
system.switch_cpus.iq.vec_inst_queue_wakeup_accesses            0                       # Number of vector instruction queue wakeup accesses
system.switch_cpus.iq.vec_inst_queue_writes            0                       # Number of vector instruction queue writes
system.switch_cpus.itb.rdAccesses                   0                       # TLB accesses on read requests
system.switch_cpus.itb.rdMisses                     0                       # TLB misses on read requests
system.switch_cpus.itb.wrAccesses             1495189                       # TLB accesses on write requests
system.switch_cpus.itb.wrMisses                   262                       # TLB misses on write requests
system.switch_cpus.memDep0.conflictingLoads        43012                       # Number of conflicting loads.
system.switch_cpus.memDep0.conflictingStores        16234                       # Number of conflicting stores.
system.switch_cpus.memDep0.insertedLoads      3048149                       # Number of loads inserted to the mem dependence unit.
system.switch_cpus.memDep0.insertedStores       316661                       # Number of stores inserted to the mem dependence unit.
system.switch_cpus.misc_regfile_reads         5559905                       # number of misc regfile reads
system.switch_cpus.misc_regfile_writes              1                       # number of misc regfile writes
system.switch_cpus.numCycles                 16603722                       # number of cpu cycles simulated
system.switch_cpus.numWorkItemsCompleted            0                       # number of work items this cpu completed
system.switch_cpus.numWorkItemsStarted              0                       # number of work items this cpu started
system.switch_cpus.rename.BlockCycles        10143515                       # Number of cycles rename is blocking
system.switch_cpus.rename.CommittedMaps      19126939                       # Number of HB maps that are committed
system.switch_cpus.rename.IQFullEvents        1514499                       # Number of times rename has blocked due to IQ full
system.switch_cpus.rename.IdleCycles          1364281                       # Number of cycles rename is idle
system.switch_cpus.rename.LQFullEvents         443380                       # Number of times rename has blocked due to LQ full
system.switch_cpus.rename.ROBFullEvents        113795                       # Number of times rename has blocked due to ROB full
system.switch_cpus.rename.RenameLookups      46727431                       # Number of register rename lookups that rename has made
system.switch_cpus.rename.RenamedInsts       19257218                       # Number of instructions processed by rename
system.switch_cpus.rename.RenamedOperands     22220206                       # Number of destination operands rename has renamed
system.switch_cpus.rename.RunCycles           2352042                       # Number of cycles rename is running
system.switch_cpus.rename.SQFullEvents         454497                       # Number of times rename has blocked due to SQ full
system.switch_cpus.rename.SquashCycles          60450                       # Number of cycles rename is squashing
system.switch_cpus.rename.UnblockCycles       2654000                       # Number of cycles rename is unblocking
system.switch_cpus.rename.UndoneMaps          3093103                       # Number of HB maps that are undone due to squashing
system.switch_cpus.rename.fp_rename_lookups     16829656                       # Number of floating rename lookups
system.switch_cpus.rename.int_rename_lookups     16864156                       # Number of integer rename lookups
system.switch_cpus.rename.serializeStallCycles            0                       # count of cycles rename stalled for serializing inst
system.switch_cpus.rename.serializingInsts            0                       # count of serializing insts renamed
system.switch_cpus.rename.skidInsts           4505551                       # count of insts added to the skid buffer
system.switch_cpus.rename.tempSerializingInsts            0                       # count of temporary serializing insts renamed
system.switch_cpus.rob.rob_reads             33725434                       # The number of ROB reads
system.switch_cpus.rob.rob_writes            37923203                       # The number of ROB writes
system.switch_cpus.timesIdled                     357                       # Number of times that the entire CPU went into an idle state and unscheduled itself
system.tol2bus.snoop_filter.hit_multi_requests            0                       # Number of requests hitting in the snoop filter with multiple (>1) holders of the requested data.
system.tol2bus.snoop_filter.hit_multi_snoops            0                       # Number of snoops hitting in the snoop filter with multiple (>1) holders of the requested data.
system.tol2bus.snoop_filter.hit_single_requests       183430                       # Number of requests hitting in the snoop filter with a single holder of the requested data.
system.tol2bus.snoop_filter.hit_single_snoops         4459                       # Number of snoops hitting in the snoop filter with a single holder of the requested data.
system.tol2bus.snoop_filter.tot_requests       368169                       # Total number of requests made to the snoop filter.
system.tol2bus.snoop_filter.tot_snoops           4459                       # Total number of snoops made to the snoop filter.
system.membus.pwrStateResidencyTicks::UNDEFINED 270775581925000                       # Cumulative time (in ticks) in various power states
system.membus.trans_dist::ReadResp             152010                       # Transaction distribution
system.membus.trans_dist::WritebackDirty        15735                       # Transaction distribution
system.membus.trans_dist::CleanEvict           137966                       # Transaction distribution
system.membus.trans_dist::ReadExReq              6076                       # Transaction distribution
system.membus.trans_dist::ReadExResp             6076                       # Transaction distribution
system.membus.trans_dist::ReadSharedReq        152010                       # Transaction distribution
system.membus.pkt_count_system.l2.mem_side::system.mem_ctrls.port       469873                       # Packet count per connected master and slave (bytes)
system.membus.pkt_count_system.l2.mem_side::total       469873                       # Packet count per connected master and slave (bytes)
system.membus.pkt_count::total                 469873                       # Packet count per connected master and slave (bytes)
system.membus.pkt_size_system.l2.mem_side::system.mem_ctrls.port     11124544                       # Cumulative packet size per connected master and slave (bytes)
system.membus.pkt_size_system.l2.mem_side::total     11124544                       # Cumulative packet size per connected master and slave (bytes)
system.membus.pkt_size::total                11124544                       # Cumulative packet size per connected master and slave (bytes)
system.membus.snoops                                0                       # Total snoops (count)
system.membus.snoopTraffic                          0                       # Total snoop traffic (bytes)
system.membus.snoop_fanout::samples            158086                       # Request fanout histogram
system.membus.snoop_fanout::mean                    0                       # Request fanout histogram
system.membus.snoop_fanout::stdev                   0                       # Request fanout histogram
system.membus.snoop_fanout::underflows              0      0.00%      0.00% # Request fanout histogram
system.membus.snoop_fanout::0                  158086    100.00%    100.00% # Request fanout histogram
system.membus.snoop_fanout::1                       0      0.00%    100.00% # Request fanout histogram
system.membus.snoop_fanout::overflows               0      0.00%    100.00% # Request fanout histogram
system.membus.snoop_fanout::min_value               0                       # Request fanout histogram
system.membus.snoop_fanout::max_value               0                       # Request fanout histogram
system.membus.snoop_fanout::total              158086                       # Request fanout histogram
system.membus.reqLayer2.occupancy           403529471                       # Layer occupancy (ticks)
system.membus.reqLayer2.utilization               4.9                       # Layer utilization (%)
system.membus.respLayer1.occupancy          839400998                       # Layer occupancy (ticks)
system.membus.respLayer1.utilization             10.1                       # Layer utilization (%)
system.switch_cpus.pwrStateResidencyTicks::OFF   8301871250                       # Cumulative time (in ticks) in various power states
system.switch_cpus.dtb.walker.pwrStateResidencyTicks::UNDEFINED 270775581925000                       # Cumulative time (in ticks) in various power states
system.switch_cpus.itb.walker.pwrStateResidencyTicks::UNDEFINED 270775581925000                       # Cumulative time (in ticks) in various power states
system.tol2bus.pwrStateResidencyTicks::UNDEFINED 270775581925000                       # Cumulative time (in ticks) in various power states
system.tol2bus.trans_dist::ReadResp            172400                       # Transaction distribution
system.tol2bus.trans_dist::WritebackDirty        42167                       # Transaction distribution
system.tol2bus.trans_dist::WritebackClean          166                       # Transaction distribution
system.tol2bus.trans_dist::CleanEvict          296074                       # Transaction distribution
system.tol2bus.trans_dist::HardPFReq            25954                       # Transaction distribution
system.tol2bus.trans_dist::ReadExReq            12339                       # Transaction distribution
system.tol2bus.trans_dist::ReadExResp           12339                       # Transaction distribution
system.tol2bus.trans_dist::ReadCleanReq           451                       # Transaction distribution
system.tol2bus.trans_dist::ReadSharedReq       171949                       # Transaction distribution
system.tol2bus.pkt_count_system.cpu.icache.mem_side::system.l2.cpu_side         1068                       # Packet count per connected master and slave (bytes)
system.tol2bus.pkt_count_system.cpu.dcache.mem_side::system.l2.cpu_side       551840                       # Packet count per connected master and slave (bytes)
system.tol2bus.pkt_count::total                552908                       # Packet count per connected master and slave (bytes)
system.tol2bus.pkt_size_system.cpu.icache.mem_side::system.l2.cpu_side        39488                       # Cumulative packet size per connected master and slave (bytes)
system.tol2bus.pkt_size_system.cpu.dcache.mem_side::system.l2.cpu_side     13486080                       # Cumulative packet size per connected master and slave (bytes)
system.tol2bus.pkt_size::total               13525568                       # Cumulative packet size per connected master and slave (bytes)
system.tol2bus.snoops                          180931                       # Total snoops (count)
system.tol2bus.snoopTraffic                   1007040                       # Total snoop traffic (bytes)
system.tol2bus.snoop_fanout::samples           365670                       # Request fanout histogram
system.tol2bus.snoop_fanout::mean            0.012194                       # Request fanout histogram
system.tol2bus.snoop_fanout::stdev           0.109752                       # Request fanout histogram
system.tol2bus.snoop_fanout::underflows             0      0.00%      0.00% # Request fanout histogram
system.tol2bus.snoop_fanout::0                 361211     98.78%     98.78% # Request fanout histogram
system.tol2bus.snoop_fanout::1                   4459      1.22%    100.00% # Request fanout histogram
system.tol2bus.snoop_fanout::2                      0      0.00%    100.00% # Request fanout histogram
system.tol2bus.snoop_fanout::3                      0      0.00%    100.00% # Request fanout histogram
system.tol2bus.snoop_fanout::4                      0      0.00%    100.00% # Request fanout histogram
system.tol2bus.snoop_fanout::overflows              0      0.00%    100.00% # Request fanout histogram
system.tol2bus.snoop_fanout::min_value              0                       # Request fanout histogram
system.tol2bus.snoop_fanout::max_value              1                       # Request fanout histogram
system.tol2bus.snoop_fanout::total             365670                       # Request fanout histogram
system.tol2bus.reqLayer0.occupancy          210680000                       # Layer occupancy (ticks)
system.tol2bus.reqLayer0.utilization              2.5                       # Layer utilization (%)
system.tol2bus.respLayer1.occupancy         276427500                       # Layer occupancy (ticks)
system.tol2bus.respLayer1.utilization             3.3                       # Layer utilization (%)
system.tol2bus.respLayer0.occupancy            674498                       # Layer occupancy (ticks)
system.tol2bus.respLayer0.utilization             0.0                       # Layer utilization (%)
system.voltage_domain.voltage                       1                       # Voltage in Volts
system.clk_domain.clock                          1000                       # Clock period in ticks
system.l2.pwrStateResidencyTicks::UNDEFINED 270775581925000                       # Cumulative time (in ticks) in various power states
system.l2.demand_hits::.switch_cpus.inst           25                       # number of demand (read+write) hits
system.l2.demand_hits::.switch_cpus.data        41561                       # number of demand (read+write) hits
system.l2.demand_hits::total                    41586                       # number of demand (read+write) hits
system.l2.overall_hits::.switch_cpus.inst           25                       # number of overall hits
system.l2.overall_hits::.switch_cpus.data        41561                       # number of overall hits
system.l2.overall_hits::total                   41586                       # number of overall hits
system.l2.demand_misses::.cpu.inst                  2                       # number of demand (read+write) misses
system.l2.demand_misses::.cpu.data                  3                       # number of demand (read+write) misses
system.l2.demand_misses::.switch_cpus.inst          424                       # number of demand (read+write) misses
system.l2.demand_misses::.switch_cpus.data       142724                       # number of demand (read+write) misses
system.l2.demand_misses::total                 143153                       # number of demand (read+write) misses
system.l2.overall_misses::.cpu.inst                 2                       # number of overall misses
system.l2.overall_misses::.cpu.data                 3                       # number of overall misses
system.l2.overall_misses::.switch_cpus.inst          424                       # number of overall misses
system.l2.overall_misses::.switch_cpus.data       142724                       # number of overall misses
system.l2.overall_misses::total                143153                       # number of overall misses
system.l2.demand_miss_latency::.switch_cpus.inst     36723500                       # number of demand (read+write) miss cycles
system.l2.demand_miss_latency::.switch_cpus.data  11778426500                       # number of demand (read+write) miss cycles
system.l2.demand_miss_latency::total      11815150000                       # number of demand (read+write) miss cycles
system.l2.overall_miss_latency::.switch_cpus.inst     36723500                       # number of overall miss cycles
system.l2.overall_miss_latency::.switch_cpus.data  11778426500                       # number of overall miss cycles
system.l2.overall_miss_latency::total     11815150000                       # number of overall miss cycles
system.l2.demand_accesses::.cpu.inst                2                       # number of demand (read+write) accesses
system.l2.demand_accesses::.cpu.data                3                       # number of demand (read+write) accesses
system.l2.demand_accesses::.switch_cpus.inst          449                       # number of demand (read+write) accesses
system.l2.demand_accesses::.switch_cpus.data       184285                       # number of demand (read+write) accesses
system.l2.demand_accesses::total               184739                       # number of demand (read+write) accesses
system.l2.overall_accesses::.cpu.inst               2                       # number of overall (read+write) accesses
system.l2.overall_accesses::.cpu.data               3                       # number of overall (read+write) accesses
system.l2.overall_accesses::.switch_cpus.inst          449                       # number of overall (read+write) accesses
system.l2.overall_accesses::.switch_cpus.data       184285                       # number of overall (read+write) accesses
system.l2.overall_accesses::total              184739                       # number of overall (read+write) accesses
system.l2.demand_miss_rate::.cpu.inst               1                       # miss rate for demand accesses
system.l2.demand_miss_rate::.cpu.data               1                       # miss rate for demand accesses
system.l2.demand_miss_rate::.switch_cpus.inst     0.944321                       # miss rate for demand accesses
system.l2.demand_miss_rate::.switch_cpus.data     0.774474                       # miss rate for demand accesses
system.l2.demand_miss_rate::total            0.774893                       # miss rate for demand accesses
system.l2.overall_miss_rate::.cpu.inst              1                       # miss rate for overall accesses
system.l2.overall_miss_rate::.cpu.data              1                       # miss rate for overall accesses
system.l2.overall_miss_rate::.switch_cpus.inst     0.944321                       # miss rate for overall accesses
system.l2.overall_miss_rate::.switch_cpus.data     0.774474                       # miss rate for overall accesses
system.l2.overall_miss_rate::total           0.774893                       # miss rate for overall accesses
system.l2.demand_avg_miss_latency::.switch_cpus.inst 86612.028302                       # average overall miss latency
system.l2.demand_avg_miss_latency::.switch_cpus.data 82525.899638                       # average overall miss latency
system.l2.demand_avg_miss_latency::total 82535.119767                       # average overall miss latency
system.l2.overall_avg_miss_latency::.switch_cpus.inst 86612.028302                       # average overall miss latency
system.l2.overall_avg_miss_latency::.switch_cpus.data 82525.899638                       # average overall miss latency
system.l2.overall_avg_miss_latency::total 82535.119767                       # average overall miss latency
system.l2.blocked_cycles::no_mshrs                  0                       # number of cycles access was blocked
system.l2.blocked_cycles::no_targets                0                       # number of cycles access was blocked
system.l2.blocked::no_mshrs                         0                       # number of cycles access was blocked
system.l2.blocked::no_targets                       0                       # number of cycles access was blocked
system.l2.avg_blocked_cycles::no_mshrs            nan                       # average number of cycles each access was blocked
system.l2.avg_blocked_cycles::no_targets          nan                       # average number of cycles each access was blocked
system.l2.unused_prefetches                       660                       # number of HardPF blocks evicted w/o reference
system.l2.writebacks::.writebacks               15735                       # number of writebacks
system.l2.writebacks::total                     15735                       # number of writebacks
system.l2.demand_mshr_hits::.switch_cpus.data            3                       # number of demand (read+write) MSHR hits
system.l2.demand_mshr_hits::total                   3                       # number of demand (read+write) MSHR hits
system.l2.overall_mshr_hits::.switch_cpus.data            3                       # number of overall MSHR hits
system.l2.overall_mshr_hits::total                  3                       # number of overall MSHR hits
system.l2.demand_mshr_misses::.switch_cpus.inst          424                       # number of demand (read+write) MSHR misses
system.l2.demand_mshr_misses::.switch_cpus.data       142721                       # number of demand (read+write) MSHR misses
system.l2.demand_mshr_misses::total            143145                       # number of demand (read+write) MSHR misses
system.l2.overall_mshr_misses::.l2.prefetcher        14944                       # number of overall MSHR misses
system.l2.overall_mshr_misses::.switch_cpus.inst          424                       # number of overall MSHR misses
system.l2.overall_mshr_misses::.switch_cpus.data       142721                       # number of overall MSHR misses
system.l2.overall_mshr_misses::total           158089                       # number of overall MSHR misses
system.l2.demand_mshr_miss_latency::.switch_cpus.inst     32483500                       # number of demand (read+write) MSHR miss cycles
system.l2.demand_mshr_miss_latency::.switch_cpus.data  10351048500                       # number of demand (read+write) MSHR miss cycles
system.l2.demand_mshr_miss_latency::total  10383532000                       # number of demand (read+write) MSHR miss cycles
system.l2.overall_mshr_miss_latency::.l2.prefetcher   1008655335                       # number of overall MSHR miss cycles
system.l2.overall_mshr_miss_latency::.switch_cpus.inst     32483500                       # number of overall MSHR miss cycles
system.l2.overall_mshr_miss_latency::.switch_cpus.data  10351048500                       # number of overall MSHR miss cycles
system.l2.overall_mshr_miss_latency::total  11392187335                       # number of overall MSHR miss cycles
system.l2.demand_mshr_miss_rate::.switch_cpus.inst     0.944321                       # mshr miss rate for demand accesses
system.l2.demand_mshr_miss_rate::.switch_cpus.data     0.774458                       # mshr miss rate for demand accesses
system.l2.demand_mshr_miss_rate::total       0.774850                       # mshr miss rate for demand accesses
system.l2.overall_mshr_miss_rate::.l2.prefetcher          inf                       # mshr miss rate for overall accesses
system.l2.overall_mshr_miss_rate::.switch_cpus.inst     0.944321                       # mshr miss rate for overall accesses
system.l2.overall_mshr_miss_rate::.switch_cpus.data     0.774458                       # mshr miss rate for overall accesses
system.l2.overall_mshr_miss_rate::total      0.855742                       # mshr miss rate for overall accesses
system.l2.demand_avg_mshr_miss_latency::.switch_cpus.inst 76612.028302                       # average overall mshr miss latency
system.l2.demand_avg_mshr_miss_latency::.switch_cpus.data 72526.457214                       # average overall mshr miss latency
system.l2.demand_avg_mshr_miss_latency::total 72538.558804                       # average overall mshr miss latency
system.l2.overall_avg_mshr_miss_latency::.l2.prefetcher 67495.672845                       # average overall mshr miss latency
system.l2.overall_avg_mshr_miss_latency::.switch_cpus.inst 76612.028302                       # average overall mshr miss latency
system.l2.overall_avg_mshr_miss_latency::.switch_cpus.data 72526.457214                       # average overall mshr miss latency
system.l2.overall_avg_mshr_miss_latency::total 72061.859680                       # average overall mshr miss latency
system.l2.replacements                         154977                       # number of replacements
system.l2.WritebackDirty_hits::.writebacks        26432                       # number of WritebackDirty hits
system.l2.WritebackDirty_hits::total            26432                       # number of WritebackDirty hits
system.l2.WritebackDirty_accesses::.writebacks        26432                       # number of WritebackDirty accesses(hits+misses)
system.l2.WritebackDirty_accesses::total        26432                       # number of WritebackDirty accesses(hits+misses)
system.l2.WritebackClean_hits::.writebacks          166                       # number of WritebackClean hits
system.l2.WritebackClean_hits::total              166                       # number of WritebackClean hits
system.l2.WritebackClean_accesses::.writebacks          166                       # number of WritebackClean accesses(hits+misses)
system.l2.WritebackClean_accesses::total          166                       # number of WritebackClean accesses(hits+misses)
system.l2.CleanEvict_mshr_misses::.writebacks         3175                       # number of CleanEvict MSHR misses
system.l2.CleanEvict_mshr_misses::total          3175                       # number of CleanEvict MSHR misses
system.l2.CleanEvict_mshr_miss_rate::.writebacks          inf                       # mshr miss rate for CleanEvict accesses
system.l2.CleanEvict_mshr_miss_rate::total          inf                       # mshr miss rate for CleanEvict accesses
system.l2.HardPFReq_mshr_misses::.l2.prefetcher        14944                       # number of HardPFReq MSHR misses
system.l2.HardPFReq_mshr_misses::total          14944                       # number of HardPFReq MSHR misses
system.l2.HardPFReq_mshr_miss_latency::.l2.prefetcher   1008655335                       # number of HardPFReq MSHR miss cycles
system.l2.HardPFReq_mshr_miss_latency::total   1008655335                       # number of HardPFReq MSHR miss cycles
system.l2.HardPFReq_mshr_miss_rate::.l2.prefetcher          inf                       # mshr miss rate for HardPFReq accesses
system.l2.HardPFReq_mshr_miss_rate::total          inf                       # mshr miss rate for HardPFReq accesses
system.l2.HardPFReq_avg_mshr_miss_latency::.l2.prefetcher 67495.672845                       # average HardPFReq mshr miss latency
system.l2.HardPFReq_avg_mshr_miss_latency::total 67495.672845                       # average HardPFReq mshr miss latency
system.l2.ReadExReq_hits::.switch_cpus.data         6263                       # number of ReadExReq hits
system.l2.ReadExReq_hits::total                  6263                       # number of ReadExReq hits
system.l2.ReadExReq_misses::.cpu.data               1                       # number of ReadExReq misses
system.l2.ReadExReq_misses::.switch_cpus.data         6075                       # number of ReadExReq misses
system.l2.ReadExReq_misses::total                6076                       # number of ReadExReq misses
system.l2.ReadExReq_miss_latency::.switch_cpus.data    512540500                       # number of ReadExReq miss cycles
system.l2.ReadExReq_miss_latency::total     512540500                       # number of ReadExReq miss cycles
system.l2.ReadExReq_accesses::.cpu.data             1                       # number of ReadExReq accesses(hits+misses)
system.l2.ReadExReq_accesses::.switch_cpus.data        12338                       # number of ReadExReq accesses(hits+misses)
system.l2.ReadExReq_accesses::total             12339                       # number of ReadExReq accesses(hits+misses)
system.l2.ReadExReq_miss_rate::.cpu.data            1                       # miss rate for ReadExReq accesses
system.l2.ReadExReq_miss_rate::.switch_cpus.data     0.492381                       # miss rate for ReadExReq accesses
system.l2.ReadExReq_miss_rate::total         0.492422                       # miss rate for ReadExReq accesses
[...]
system.cpu.itb.walker.pwrStateResidencyTicks::UNDEFINED 270800857436000                       # Cumulative time (in ticks) in various power states
system.cpu.dtb_walker_cache.pwrStateResidencyTicks::UNDEFINED 270800857436000                       # Cumulative time (in ticks) in various power states
system.cpu.dtb_walker_cache.blocked_cycles::no_mshrs            0                       # number of cycles access was blocked
system.cpu.dtb_walker_cache.blocked_cycles::no_targets            0                       # number of cycles access was blocked
system.cpu.dtb_walker_cache.blocked::no_mshrs            0                       # number of cycles access was blocked
system.cpu.dtb_walker_cache.blocked::no_targets            0                       # number of cycles access was blocked
system.cpu.dtb_walker_cache.avg_blocked_cycles::no_mshrs          nan                       # average number of cycles each access was blocked
system.cpu.dtb_walker_cache.avg_blocked_cycles::no_targets          nan                       # average number of cycles each access was blocked
system.cpu.dtb_walker_cache.replacements            0                       # number of replacements
system.cpu.dtb_walker_cache.tags.pwrStateResidencyTicks::UNDEFINED 270800857436000                       # Cumulative time (in ticks) in various power states
system.cpu.dtb_walker_cache.tags.tagsinuse            0                       # Cycle average of tags in use
system.cpu.dtb_walker_cache.tags.total_refs            0                       # Total number of references to valid blocks.
system.cpu.dtb_walker_cache.tags.sampled_refs            0                       # Sample count of references to valid blocks.
system.cpu.dtb_walker_cache.tags.avg_refs          nan                       # Average number of references to valid blocks.
system.cpu.dtb_walker_cache.tags.warmup_cycle            0                       # Cycle when the warmup percentage was hit.
system.cpu.dtb_walker_cache.tags.tag_accesses            0                       # Number of tag accesses
system.cpu.dtb_walker_cache.tags.data_accesses            0                       # Number of data accesses
system.cpu.dcache.pwrStateResidencyTicks::UNDEFINED 270800857436000                       # Cumulative time (in ticks) in various power states
system.cpu.dcache.demand_hits::.cpu.data            3                       # number of demand (read+write) hits
system.cpu.dcache.demand_hits::.switch_cpus.data     10266047                       # number of demand (read+write) hits
system.cpu.dcache.demand_hits::total         10266050                       # number of demand (read+write) hits
system.cpu.dcache.overall_hits::.cpu.data            3                       # number of overall hits
system.cpu.dcache.overall_hits::.switch_cpus.data     10282154                       # number of overall hits
system.cpu.dcache.overall_hits::total        10282157                       # number of overall hits
system.cpu.dcache.demand_misses::.cpu.data            3                       # number of demand (read+write) misses
system.cpu.dcache.demand_misses::.switch_cpus.data      2989079                       # number of demand (read+write) misses
system.cpu.dcache.demand_misses::total        2989082                       # number of demand (read+write) misses
system.cpu.dcache.overall_misses::.cpu.data            3                       # number of overall misses
system.cpu.dcache.overall_misses::.switch_cpus.data      2989380                       # number of overall misses
system.cpu.dcache.overall_misses::total       2989383                       # number of overall misses
system.cpu.dcache.demand_miss_latency::.switch_cpus.data 185047311338                       # number of demand (read+write) miss cycles
system.cpu.dcache.demand_miss_latency::total 185047311338                       # number of demand (read+write) miss cycles
system.cpu.dcache.overall_miss_latency::.switch_cpus.data 185047311338                       # number of overall miss cycles
system.cpu.dcache.overall_miss_latency::total 185047311338                       # number of overall miss cycles
system.cpu.dcache.demand_accesses::.cpu.data            6                       # number of demand (read+write) accesses
system.cpu.dcache.demand_accesses::.switch_cpus.data     13255126                       # number of demand (read+write) accesses
system.cpu.dcache.demand_accesses::total     13255132                       # number of demand (read+write) accesses
system.cpu.dcache.overall_accesses::.cpu.data            6                       # number of overall (read+write) accesses
system.cpu.dcache.overall_accesses::.switch_cpus.data     13271534                       # number of overall (read+write) accesses
system.cpu.dcache.overall_accesses::total     13271540                       # number of overall (read+write) accesses
system.cpu.dcache.demand_miss_rate::.cpu.data     0.500000                       # miss rate for demand accesses
system.cpu.dcache.demand_miss_rate::.switch_cpus.data     0.225504                       # miss rate for demand accesses
system.cpu.dcache.demand_miss_rate::total     0.225504                       # miss rate for demand accesses
system.cpu.dcache.overall_miss_rate::.cpu.data     0.500000                       # miss rate for overall accesses
system.cpu.dcache.overall_miss_rate::.switch_cpus.data     0.225248                       # miss rate for overall accesses
system.cpu.dcache.overall_miss_rate::total     0.225248                       # miss rate for overall accesses
system.cpu.dcache.demand_avg_miss_latency::.switch_cpus.data 61907.802148                       # average overall miss latency
system.cpu.dcache.demand_avg_miss_latency::total 61907.740014                       # average overall miss latency
system.cpu.dcache.overall_avg_miss_latency::.switch_cpus.data 61901.568666                       # average overall miss latency
system.cpu.dcache.overall_avg_miss_latency::total 61901.506544                       # average overall miss latency
system.cpu.dcache.blocked_cycles::no_mshrs      3282052                       # number of cycles access was blocked
system.cpu.dcache.blocked_cycles::no_targets            0                       # number of cycles access was blocked
system.cpu.dcache.blocked::no_mshrs             93843                       # number of cycles access was blocked
system.cpu.dcache.blocked::no_targets               0                       # number of cycles access was blocked
system.cpu.dcache.avg_blocked_cycles::no_mshrs    34.973861                       # average number of cycles each access was blocked
system.cpu.dcache.avg_blocked_cycles::no_targets          nan                       # average number of cycles each access was blocked
system.cpu.dcache.writebacks::.writebacks       102894                       # number of writebacks
system.cpu.dcache.writebacks::total            102894                       # number of writebacks
system.cpu.dcache.demand_mshr_hits::.switch_cpus.data      2235323                       # number of demand (read+write) MSHR hits
system.cpu.dcache.demand_mshr_hits::total      2235323                       # number of demand (read+write) MSHR hits
system.cpu.dcache.overall_mshr_hits::.switch_cpus.data      2235323                       # number of overall MSHR hits
system.cpu.dcache.overall_mshr_hits::total      2235323                       # number of overall MSHR hits
system.cpu.dcache.demand_mshr_misses::.switch_cpus.data       753756                       # number of demand (read+write) MSHR misses
system.cpu.dcache.demand_mshr_misses::total       753756                       # number of demand (read+write) MSHR misses
system.cpu.dcache.overall_mshr_misses::.switch_cpus.data       753914                       # number of overall MSHR misses
system.cpu.dcache.overall_mshr_misses::total       753914                       # number of overall MSHR misses
system.cpu.dcache.demand_mshr_miss_latency::.switch_cpus.data  50978151340                       # number of demand (read+write) MSHR miss cycles
system.cpu.dcache.demand_mshr_miss_latency::total  50978151340                       # number of demand (read+write) MSHR miss cycles
system.cpu.dcache.overall_mshr_miss_latency::.switch_cpus.data  50985237840                       # number of overall MSHR miss cycles
system.cpu.dcache.overall_mshr_miss_latency::total  50985237840                       # number of overall MSHR miss cycles
system.cpu.dcache.demand_mshr_miss_rate::.switch_cpus.data     0.056865                       # mshr miss rate for demand accesses
system.cpu.dcache.demand_mshr_miss_rate::total     0.056865                       # mshr miss rate for demand accesses
system.cpu.dcache.overall_mshr_miss_rate::.switch_cpus.data     0.056807                       # mshr miss rate for overall accesses
system.cpu.dcache.overall_mshr_miss_rate::total     0.056807                       # mshr miss rate for overall accesses
system.cpu.dcache.demand_avg_mshr_miss_latency::.switch_cpus.data 67632.166563                       # average overall mshr miss latency
system.cpu.dcache.demand_avg_mshr_miss_latency::total 67632.166563                       # average overall mshr miss latency
system.cpu.dcache.overall_avg_mshr_miss_latency::.switch_cpus.data 67627.392302                       # average overall mshr miss latency
system.cpu.dcache.overall_avg_mshr_miss_latency::total 67627.392302                       # average overall mshr miss latency
system.cpu.dcache.replacements                 752892                       # number of replacements
system.cpu.dcache.ReadReq_hits::.cpu.data            3                       # number of ReadReq hits
system.cpu.dcache.ReadReq_hits::.switch_cpus.data      9062942                       # number of ReadReq hits
system.cpu.dcache.ReadReq_hits::total         9062945                       # number of ReadReq hits
system.cpu.dcache.ReadReq_misses::.cpu.data            2                       # number of ReadReq misses
system.cpu.dcache.ReadReq_misses::.switch_cpus.data      2942591                       # number of ReadReq misses
system.cpu.dcache.ReadReq_misses::total       2942593                       # number of ReadReq misses
system.cpu.dcache.ReadReq_miss_latency::.switch_cpus.data 182771387000                       # number of ReadReq miss cycles
system.cpu.dcache.ReadReq_miss_latency::total 182771387000                       # number of ReadReq miss cycles
system.cpu.dcache.ReadReq_accesses::.cpu.data            5                       # number of ReadReq accesses(hits+misses)
system.cpu.dcache.ReadReq_accesses::.switch_cpus.data     12005533                       # number of ReadReq accesses(hits+misses)
system.cpu.dcache.ReadReq_accesses::total     12005538                       # number of ReadReq accesses(hits+misses)
system.cpu.dcache.ReadReq_miss_rate::.cpu.data     0.400000                       # miss rate for ReadReq accesses
system.cpu.dcache.ReadReq_miss_rate::.switch_cpus.data     0.245103                       # miss rate for ReadReq accesses
system.cpu.dcache.ReadReq_miss_rate::total     0.245103                       # miss rate for ReadReq accesses
system.cpu.dcache.ReadReq_avg_miss_latency::.switch_cpus.data 62112.399243                       # average ReadReq miss latency
system.cpu.dcache.ReadReq_avg_miss_latency::total 62112.357027                       # average ReadReq miss latency
system.cpu.dcache.ReadReq_mshr_hits::.switch_cpus.data      2235149                       # number of ReadReq MSHR hits
system.cpu.dcache.ReadReq_mshr_hits::total      2235149                       # number of ReadReq MSHR hits
system.cpu.dcache.ReadReq_mshr_misses::.switch_cpus.data       707442                       # number of ReadReq MSHR misses
system.cpu.dcache.ReadReq_mshr_misses::total       707442                       # number of ReadReq MSHR misses
system.cpu.dcache.ReadReq_mshr_miss_latency::.switch_cpus.data  48755543500                       # number of ReadReq MSHR miss cycles
system.cpu.dcache.ReadReq_mshr_miss_latency::total  48755543500                       # number of ReadReq MSHR miss cycles
system.cpu.dcache.ReadReq_mshr_miss_rate::.switch_cpus.data     0.058926                       # mshr miss rate for ReadReq accesses
system.cpu.dcache.ReadReq_mshr_miss_rate::total     0.058926                       # mshr miss rate for ReadReq accesses
system.cpu.dcache.ReadReq_avg_mshr_miss_latency::.switch_cpus.data 68918.078797                       # average ReadReq mshr miss latency
system.cpu.dcache.ReadReq_avg_mshr_miss_latency::total 68918.078797                       # average ReadReq mshr miss latency
system.cpu.dcache.WriteReq_hits::.switch_cpus.data      1203105                       # number of WriteReq hits
system.cpu.dcache.WriteReq_hits::total        1203105                       # number of WriteReq hits
system.cpu.dcache.WriteReq_misses::.cpu.data            1                       # number of WriteReq misses
system.cpu.dcache.WriteReq_misses::.switch_cpus.data        46488                       # number of WriteReq misses
system.cpu.dcache.WriteReq_misses::total        46489                       # number of WriteReq misses
system.cpu.dcache.WriteReq_miss_latency::.switch_cpus.data   2275924338                       # number of WriteReq miss cycles
system.cpu.dcache.WriteReq_miss_latency::total   2275924338                       # number of WriteReq miss cycles
system.cpu.dcache.WriteReq_accesses::.cpu.data            1                       # number of WriteReq accesses(hits+misses)
system.cpu.dcache.WriteReq_accesses::.switch_cpus.data      1249593                       # number of WriteReq accesses(hits+misses)
system.cpu.dcache.WriteReq_accesses::total      1249594                       # number of WriteReq accesses(hits+misses)
system.cpu.dcache.WriteReq_miss_rate::.cpu.data            1                       # miss rate for WriteReq accesses
system.cpu.dcache.WriteReq_miss_rate::.switch_cpus.data     0.037203                       # miss rate for WriteReq accesses
system.cpu.dcache.WriteReq_miss_rate::total     0.037203                       # miss rate for WriteReq accesses
system.cpu.dcache.WriteReq_avg_miss_latency::.switch_cpus.data 48957.243547                       # average WriteReq miss latency
system.cpu.dcache.WriteReq_avg_miss_latency::total 48956.190454                       # average WriteReq miss latency
system.cpu.dcache.WriteReq_mshr_hits::.switch_cpus.data          174                       # number of WriteReq MSHR hits
system.cpu.dcache.WriteReq_mshr_hits::total          174                       # number of WriteReq MSHR hits
system.cpu.dcache.WriteReq_mshr_misses::.switch_cpus.data        46314                       # number of WriteReq MSHR misses
system.cpu.dcache.WriteReq_mshr_misses::total        46314                       # number of WriteReq MSHR misses
system.cpu.dcache.WriteReq_mshr_miss_latency::.switch_cpus.data   2222607840                       # number of WriteReq MSHR miss cycles
system.cpu.dcache.WriteReq_mshr_miss_latency::total   2222607840                       # number of WriteReq MSHR miss cycles
system.cpu.dcache.WriteReq_mshr_miss_rate::.switch_cpus.data     0.037063                       # mshr miss rate for WriteReq accesses
system.cpu.dcache.WriteReq_mshr_miss_rate::total     0.037063                       # mshr miss rate for WriteReq accesses
system.cpu.dcache.WriteReq_avg_mshr_miss_latency::.switch_cpus.data 47989.977976                       # average WriteReq mshr miss latency
system.cpu.dcache.WriteReq_avg_mshr_miss_latency::total 47989.977976                       # average WriteReq mshr miss latency
system.cpu.dcache.SoftPFReq_hits::.switch_cpus.data        16107                       # number of SoftPFReq hits
system.cpu.dcache.SoftPFReq_hits::total         16107                       # number of SoftPFReq hits
system.cpu.dcache.SoftPFReq_misses::.switch_cpus.data          301                       # number of SoftPFReq misses
system.cpu.dcache.SoftPFReq_misses::total          301                       # number of SoftPFReq misses
system.cpu.dcache.SoftPFReq_accesses::.switch_cpus.data        16408                       # number of SoftPFReq accesses(hits+misses)
system.cpu.dcache.SoftPFReq_accesses::total        16408                       # number of SoftPFReq accesses(hits+misses)
system.cpu.dcache.SoftPFReq_miss_rate::.switch_cpus.data     0.018345                       # miss rate for SoftPFReq accesses
system.cpu.dcache.SoftPFReq_miss_rate::total     0.018345                       # miss rate for SoftPFReq accesses
system.cpu.dcache.SoftPFReq_mshr_misses::.switch_cpus.data          158                       # number of SoftPFReq MSHR misses
system.cpu.dcache.SoftPFReq_mshr_misses::total          158                       # number of SoftPFReq MSHR misses
system.cpu.dcache.SoftPFReq_mshr_miss_latency::.switch_cpus.data      7086500                       # number of SoftPFReq MSHR miss cycles
system.cpu.dcache.SoftPFReq_mshr_miss_latency::total      7086500                       # number of SoftPFReq MSHR miss cycles
system.cpu.dcache.SoftPFReq_mshr_miss_rate::.switch_cpus.data     0.009629                       # mshr miss rate for SoftPFReq accesses
system.cpu.dcache.SoftPFReq_mshr_miss_rate::total     0.009629                       # mshr miss rate for SoftPFReq accesses
system.cpu.dcache.SoftPFReq_avg_mshr_miss_latency::.switch_cpus.data 44851.265823                       # average SoftPFReq mshr miss latency
system.cpu.dcache.SoftPFReq_avg_mshr_miss_latency::total 44851.265823                       # average SoftPFReq mshr miss latency
system.cpu.dcache.tags.pwrStateResidencyTicks::UNDEFINED 270800857436000                       # Cumulative time (in ticks) in various power states
system.cpu.dcache.tags.tagsinuse             0.126850                       # Cycle average of tags in use
system.cpu.dcache.tags.total_refs            11036073                       # Total number of references to valid blocks.
system.cpu.dcache.tags.sampled_refs            753916                       # Sample count of references to valid blocks.
system.cpu.dcache.tags.avg_refs             14.638332                       # Average number of references to valid blocks.
system.cpu.dcache.tags.warmup_cycle      270767280054500                       # Cycle when the warmup percentage was hit.
system.cpu.dcache.tags.occ_blocks::.cpu.data     0.000002                       # Average occupied blocks per requestor
system.cpu.dcache.tags.occ_blocks::.switch_cpus.data     0.126848                       # Average occupied blocks per requestor
system.cpu.dcache.tags.occ_percent::.cpu.data     0.000000                       # Average percentage of cache occupancy
system.cpu.dcache.tags.occ_percent::.switch_cpus.data     0.000124                       # Average percentage of cache occupancy
system.cpu.dcache.tags.occ_percent::total     0.000124                       # Average percentage of cache occupancy
system.cpu.dcache.tags.occ_task_id_blocks::1024         1024                       # Occupied blocks per task id
system.cpu.dcache.tags.age_task_id_blocks_1024::0          208                       # Occupied blocks per task id
system.cpu.dcache.tags.age_task_id_blocks_1024::1          813                       # Occupied blocks per task id
system.cpu.dcache.tags.age_task_id_blocks_1024::3            3                       # Occupied blocks per task id
system.cpu.dcache.tags.occ_task_id_percent::1024            1                       # Percentage of cache occupancy per task id
system.cpu.dcache.tags.tag_accesses          27296996                       # Number of tag accesses
system.cpu.dcache.tags.data_accesses         27296996                       # Number of data accesses

---------- End Simulation Statistics   ----------
