
---------- Begin Simulation Statistics ----------
final_tick                               81939689380500                       # Number of ticks from beginning of simulation (restored from checkpoints and never reset)
host_inst_rate                                  54407                       # Simulator instruction rate (inst/s)
host_mem_usage                                 793504                       # Number of bytes of host memory used
host_op_rate                                    87266                       # Simulator op (including micro ops) rate (op/s)
host_seconds                                   183.80                       # Real time elapsed on the host
host_tick_rate                               14260749                       # Simulator tick rate (ticks/s)
sim_freq                                 1000000000000                       # Frequency of simulated ticks
sim_insts                                    10000011                       # Number of instructions simulated
sim_ops                                      16039482                       # Number of ops (including micro ops) simulated
sim_seconds                                  0.002621                       # Number of seconds simulated
sim_ticks                                  2621123000                       # Number of ticks simulated
system.cpu.committedInsts                          11                       # Number of instructions committed
system.cpu.committedOps                            16                       # Number of ops (including micro ops) committed
system.cpu.dtb.rdAccesses                           5                       # TLB accesses on read requests
system.cpu.dtb.rdMisses                             0                       # TLB misses on read requests
system.cpu.dtb.wrAccesses                           2                       # TLB accesses on write requests
system.cpu.dtb.wrMisses                             0                       # TLB misses on write requests
system.cpu.idle_fraction                            0                       # Percentage of idle cycles
system.cpu.itb.rdAccesses                           0                       # TLB accesses on read requests
system.cpu.itb.rdMisses                             0                       # TLB misses on read requests
system.cpu.itb.wrAccesses                          16                       # TLB accesses on write requests
system.cpu.itb.wrMisses                             0                       # TLB misses on write requests
system.cpu.not_idle_fraction                        1                       # Percentage of non-idle cycles
system.cpu.numCycles                               21                       # number of cpu cycles simulated
system.cpu.numWorkItemsCompleted                    0                       # number of work items this cpu completed
system.cpu.numWorkItemsStarted                      0                       # number of work items this cpu started
system.cpu.num_busy_cycles                         21                       # Number of busy cycles
system.cpu.num_cc_register_reads                   20                       # number of times the CC registers were read
system.cpu.num_cc_register_writes                   8                       # number of times the CC registers were written
system.cpu.num_conditional_control_insts            0                       # number of instructions that are conditional controls
system.cpu.num_fp_alu_accesses                      0                       # Number of float alu accesses
system.cpu.num_fp_insts                             0                       # number of float instructions
system.cpu.num_fp_register_reads                    0                       # number of times the floating registers were read
system.cpu.num_fp_register_writes                   0                       # number of times the floating registers were written
system.cpu.num_func_calls                           0                       # number of times a function call or return occured
system.cpu.num_idle_cycles                          0                       # Number of idle cycles
system.cpu.num_int_alu_accesses                    16                       # Number of integer alu accesses
system.cpu.num_int_insts                           16                       # number of integer instructions
system.cpu.num_int_register_reads                  43                       # number of times the integer registers were read
system.cpu.num_int_register_writes                 14                       # number of times the integer registers were written
system.cpu.num_load_insts                           5                       # Number of load instructions
system.cpu.num_mem_refs                             7                       # number of memory refs
system.cpu.num_store_insts                          2                       # Number of store instructions
system.cpu.num_vec_alu_accesses                     0                       # Number of vector alu accesses
system.cpu.num_vec_insts                            0                       # number of vector instructions
system.cpu.num_vec_register_reads                   0                       # number of times the vector registers were read
system.cpu.num_vec_register_writes                  0                       # number of times the vector registers were written
system.cpu.op_class::No_OpClass                     0      0.00%      0.00% # Class of executed instruction
system.cpu.op_class::IntAlu                         9     56.25%     56.25% # Class of executed instruction
system.cpu.op_class::IntMult                        0      0.00%     56.25% # Class of executed instruction
system.cpu.op_class::IntDiv                         0      0.00%     56.25% # Class of executed instruction
system.cpu.op_class::FloatAdd                       0      0.00%     56.25% # Class of executed instruction
system.cpu.op_class::FloatCmp                       0      0.00%     56.25% # Class of executed instruction
system.cpu.op_class::FloatCvt                       0      0.00%     56.25% # Class of executed instruction
system.cpu.op_class::FloatMult                      0      0.00%     56.25% # Class of executed instruction
system.cpu.op_class::FloatMultAcc                   0      0.00%     56.25% # Class of executed instruction
system.cpu.op_class::FloatDiv                       0      0.00%     56.25% # Class of executed instruction
system.cpu.op_class::FloatMisc                      0      0.00%     56.25% # Class of executed instruction
system.cpu.op_class::FloatSqrt                      0      0.00%     56.25% # Class of executed instruction
system.cpu.op_class::SimdAdd                        0      0.00%     56.25% # Class of executed instruction
system.cpu.op_class::SimdAddAcc                     0      0.00%     56.25% # Class of executed instruction
system.cpu.op_class::SimdAlu                        0      0.00%     56.25% # Class of executed instruction
system.cpu.op_class::SimdCmp                        0      0.00%     56.25% # Class of executed instruction
system.cpu.op_class::SimdCvt                        0      0.00%     56.25% # Class of executed instruction
system.cpu.op_class::SimdMisc                       0      0.00%     56.25% # Class of executed instruction
system.cpu.op_class::SimdMult                       0      0.00%     56.25% # Class of executed instruction
system.cpu.op_class::SimdMultAcc                    0      0.00%     56.25% # Class of executed instruction
system.cpu.op_class::SimdShift                      0      0.00%     56.25% # Class of executed instruction
system.cpu.op_class::SimdShiftAcc                   0      0.00%     56.25% # Class of executed instruction
system.cpu.op_class::SimdDiv                        0      0.00%     56.25% # Class of executed instruction
system.cpu.op_class::SimdSqrt                       0      0.00%     56.25% # Class of executed instruction
system.cpu.op_class::SimdFloatAdd                   0      0.00%     56.25% # Class of executed instruction
system.cpu.op_class::SimdFloatAlu                   0      0.00%     56.25% # Class of executed instruction
system.cpu.op_class::SimdFloatCmp                   0      0.00%     56.25% # Class of executed instruction
system.cpu.op_class::SimdFloatCvt                   0      0.00%     56.25% # Class of executed instruction
system.cpu.op_class::SimdFloatDiv                   0      0.00%     56.25% # Class of executed instruction
system.cpu.op_class::SimdFloatMisc                  0      0.00%     56.25% # Class of executed instruction
system.cpu.op_class::SimdFloatMult                  0      0.00%     56.25% # Class of executed instruction
system.cpu.op_class::SimdFloatMultAcc               0      0.00%     56.25% # Class of executed instruction
system.cpu.op_class::SimdFloatSqrt                  0      0.00%     56.25% # Class of executed instruction
system.cpu.op_class::SimdReduceAdd                  0      0.00%     56.25% # Class of executed instruction
system.cpu.op_class::SimdReduceAlu                  0      0.00%     56.25% # Class of executed instruction
system.cpu.op_class::SimdReduceCmp                  0      0.00%     56.25% # Class of executed instruction
system.cpu.op_class::SimdFloatReduceAdd             0      0.00%     56.25% # Class of executed instruction
system.cpu.op_class::SimdFloatReduceCmp             0      0.00%     56.25% # Class of executed instruction
system.cpu.op_class::SimdAes                        0      0.00%     56.25% # Class of executed instruction
system.cpu.op_class::SimdAesMix                     0      0.00%     56.25% # Class of executed instruction
system.cpu.op_class::SimdSha1Hash                   0      0.00%     56.25% # Class of executed instruction
system.cpu.op_class::SimdSha1Hash2                  0      0.00%     56.25% # Class of executed instruction
system.cpu.op_class::SimdSha256Hash                 0      0.00%     56.25% # Class of executed instruction
system.cpu.op_class::SimdSha256Hash2                0      0.00%     56.25% # Class of executed instruction
system.cpu.op_class::SimdShaSigma2                  0      0.00%     56.25% # Class of executed instruction
system.cpu.op_class::SimdShaSigma3                  0      0.00%     56.25% # Class of executed instruction
system.cpu.op_class::SimdPredAlu                    0      0.00%     56.25% # Class of executed instruction
system.cpu.op_class::MemRead                        5     31.25%     87.50% # Class of executed instruction
system.cpu.op_class::MemWrite                       2     12.50%    100.00% # Class of executed instruction
system.cpu.op_class::FloatMemRead                   0      0.00%    100.00% # Class of executed instruction
system.cpu.op_class::FloatMemWrite                  0      0.00%    100.00% # Class of executed instruction
system.cpu.op_class::IprAccess                      0      0.00%    100.00% # Class of executed instruction
system.cpu.op_class::InstPrefetch                   0      0.00%    100.00% # Class of executed instruction
system.cpu.op_class::total                         16                       # Class of executed instruction
system.cpu.workload.numSyscalls                     0                       # Number of system calls
system.membus.snoop_filter.hit_multi_requests            0                       # Number of requests hitting in the snoop filter with multiple (>1) holders of the requested data.
system.membus.snoop_filter.hit_multi_snoops            0                       # Number of snoops hitting in the snoop filter with multiple (>1) holders of the requested data.
system.membus.snoop_filter.hit_single_requests           36                       # Number of requests hitting in the snoop filter with a single holder of the requested data.
system.membus.snoop_filter.hit_single_snoops            0                       # Number of snoops hitting in the snoop filter with a single holder of the requested data.
system.membus.snoop_filter.tot_requests          2768                       # Total number of requests made to the snoop filter.
system.membus.snoop_filter.tot_snoops               0                       # Total number of snoops made to the snoop filter.
system.switch_cpus.branchPred.BTBCorrect            0                       # Number of correct BTB predictions (this stat may not work properly.
system.switch_cpus.branchPred.BTBHitPct      0.000000                       # BTB Hit Percentage
system.switch_cpus.branchPred.BTBHits               0                       # Number of BTB hits
system.switch_cpus.branchPred.BTBLookups       645041                       # Number of BTB lookups
system.switch_cpus.branchPred.RASInCorrect            1                       # Number of incorrect RAS predictions.
system.switch_cpus.branchPred.condIncorrect        20728                       # Number of conditional branches incorrect
system.switch_cpus.branchPred.condPredicted       862641                       # Number of conditional branches predicted
system.switch_cpus.branchPred.indirectHits       499831                       # Number of indirect target hits.
system.switch_cpus.branchPred.indirectLookups       645041                       # Number of indirect predictor lookups.
system.switch_cpus.branchPred.indirectMisses       145210                       # Number of indirect misses.
system.switch_cpus.branchPred.lookups          946445                       # Number of BP lookups
system.switch_cpus.branchPred.usedRAS           40991                       # Number of times the RAS was used to get a target.
system.switch_cpus.branchPredindirectMispredicted         2852                       # Number of mispredicted indirect branches.
system.switch_cpus.cc_regfile_reads          14092742                       # number of cc regfile reads
system.switch_cpus.cc_regfile_writes          7121130                       # number of cc regfile writes
system.switch_cpus.commit.amos                      0                       # Number of atomic instructions committed
system.switch_cpus.commit.branchMispredicts        20755                       # The number of times a branch was mispredicted
system.switch_cpus.commit.branches             716889                       # Number of branches committed
system.switch_cpus.commit.bw_lim_events       1257726                       # number cycles where commit BW limit reached
system.switch_cpus.commit.commitSquashedInsts      1259336                       # The number of squashed insts skipped by commit
system.switch_cpus.commit.committedInsts     10000000                       # Number of instructions committed
system.switch_cpus.commit.committedOps       16039466                       # Number of ops (including micro ops) committed
system.switch_cpus.commit.committed_per_cycle::samples      5063729                       # Number of insts commited each cycle
system.switch_cpus.commit.committed_per_cycle::mean     3.167521                       # Number of insts commited each cycle
system.switch_cpus.commit.committed_per_cycle::stdev     3.117151                       # Number of insts commited each cycle
system.switch_cpus.commit.committed_per_cycle::underflows            0      0.00%      0.00% # Number of insts commited each cycle
system.switch_cpus.commit.committed_per_cycle::0       790421     15.61%     15.61% # Number of insts commited each cycle
system.switch_cpus.commit.committed_per_cycle::1      1880921     37.14%     52.75% # Number of insts commited each cycle
system.switch_cpus.commit.committed_per_cycle::2       417379      8.24%     61.00% # Number of insts commited each cycle
system.switch_cpus.commit.committed_per_cycle::3       201657      3.98%     64.98% # Number of insts commited each cycle
system.switch_cpus.commit.committed_per_cycle::4       152647      3.01%     67.99% # Number of insts commited each cycle
system.switch_cpus.commit.committed_per_cycle::5       173581      3.43%     71.42% # Number of insts commited each cycle
system.switch_cpus.commit.committed_per_cycle::6       147264      2.91%     74.33% # Number of insts commited each cycle
system.switch_cpus.commit.committed_per_cycle::7        42133      0.83%     75.16% # Number of insts commited each cycle
system.switch_cpus.commit.committed_per_cycle::8      1257726     24.84%    100.00% # Number of insts commited each cycle
system.switch_cpus.commit.committed_per_cycle::overflows            0      0.00%    100.00% # Number of insts commited each cycle
system.switch_cpus.commit.committed_per_cycle::min_value            0                       # Number of insts commited each cycle
system.switch_cpus.commit.committed_per_cycle::max_value            8                       # Number of insts commited each cycle
system.switch_cpus.commit.committed_per_cycle::total      5063729                       # Number of insts commited each cycle
system.switch_cpus.commit.fp_insts            1422468                       # Number of committed floating point instructions.
system.switch_cpus.commit.function_calls        32268                       # Number of function calls committed.
system.switch_cpus.commit.int_insts          14820827                       # Number of committed integer instructions.
system.switch_cpus.commit.loads               3605608                       # Number of loads committed
system.switch_cpus.commit.membars                   0                       # Number of memory barriers committed
system.switch_cpus.commit.op_class_0::No_OpClass        95096      0.59%      0.59% # Class of committed instruction
system.switch_cpus.commit.op_class_0::IntAlu      9834473     61.31%     61.91% # Class of committed instruction
system.switch_cpus.commit.op_class_0::IntMult        85136      0.53%     62.44% # Class of committed instruction
system.switch_cpus.commit.op_class_0::IntDiv            0      0.00%     62.44% # Class of committed instruction
system.switch_cpus.commit.op_class_0::FloatAdd        32304      0.20%     62.64% # Class of committed instruction
system.switch_cpus.commit.op_class_0::FloatCmp            0      0.00%     62.64% # Class of committed instruction
system.switch_cpus.commit.op_class_0::FloatCvt            0      0.00%     62.64% # Class of committed instruction
system.switch_cpus.commit.op_class_0::FloatMult            0      0.00%     62.64% # Class of committed instruction
system.switch_cpus.commit.op_class_0::FloatMultAcc            0      0.00%     62.64% # Class of committed instruction
system.switch_cpus.commit.op_class_0::FloatDiv            0      0.00%     62.64% # Class of committed instruction
system.switch_cpus.commit.op_class_0::FloatMisc            0      0.00%     62.64% # Class of committed instruction
system.switch_cpus.commit.op_class_0::FloatSqrt            0      0.00%     62.64% # Class of committed instruction
system.switch_cpus.commit.op_class_0::SimdAdd        21092      0.13%     62.77% # Class of committed instruction
system.switch_cpus.commit.op_class_0::SimdAddAcc            0      0.00%     62.77% # Class of committed instruction
system.switch_cpus.commit.op_class_0::SimdAlu       328288      2.05%     64.82% # Class of committed instruction
system.switch_cpus.commit.op_class_0::SimdCmp            0      0.00%     64.82% # Class of committed instruction
system.switch_cpus.commit.op_class_0::SimdCvt       126484      0.79%     65.61% # Class of committed instruction
system.switch_cpus.commit.op_class_0::SimdMisc       158973      0.99%     66.60% # Class of committed instruction
system.switch_cpus.commit.op_class_0::SimdMult            0      0.00%     66.60% # Class of committed instruction
system.switch_cpus.commit.op_class_0::SimdMultAcc            0      0.00%     66.60% # Class of committed instruction
system.switch_cpus.commit.op_class_0::SimdShift        63276      0.39%     66.99% # Class of committed instruction
system.switch_cpus.commit.op_class_0::SimdShiftAcc            0      0.00%     66.99% # Class of committed instruction
system.switch_cpus.commit.op_class_0::SimdDiv            0      0.00%     66.99% # Class of committed instruction
system.switch_cpus.commit.op_class_0::SimdSqrt            0      0.00%     66.99% # Class of committed instruction
system.switch_cpus.commit.op_class_0::SimdFloatAdd       107593      0.67%     67.66% # Class of committed instruction
system.switch_cpus.commit.op_class_0::SimdFloatAlu            0      0.00%     67.66% # Class of committed instruction
system.switch_cpus.commit.op_class_0::SimdFloatCmp           32      0.00%     67.66% # Class of committed instruction
system.switch_cpus.commit.op_class_0::SimdFloatCvt       150578      0.94%     68.60% # Class of committed instruction
system.switch_cpus.commit.op_class_0::SimdFloatDiv        21316      0.13%     68.73% # Class of committed instruction
system.switch_cpus.commit.op_class_0::SimdFloatMisc            0      0.00%     68.73% # Class of committed instruction
system.switch_cpus.commit.op_class_0::SimdFloatMult        11022      0.07%     68.80% # Class of committed instruction
system.switch_cpus.commit.op_class_0::SimdFloatMultAcc            0      0.00%     68.80% # Class of committed instruction
system.switch_cpus.commit.op_class_0::SimdFloatSqrt            0      0.00%     68.80% # Class of committed instruction
system.switch_cpus.commit.op_class_0::SimdReduceAdd            0      0.00%     68.80% # Class of committed instruction
system.switch_cpus.commit.op_class_0::SimdReduceAlu            0      0.00%     68.80% # Class of committed instruction
system.switch_cpus.commit.op_class_0::SimdReduceCmp            0      0.00%     68.80% # Class of committed instruction
system.switch_cpus.commit.op_class_0::SimdFloatReduceAdd            0      0.00%     68.80% # Class of committed instruction
system.switch_cpus.commit.op_class_0::SimdFloatReduceCmp            0      0.00%     68.80% # Class of committed instruction
system.switch_cpus.commit.op_class_0::SimdAes            0      0.00%     68.80% # Class of committed instruction
system.switch_cpus.commit.op_class_0::SimdAesMix            0      0.00%     68.80% # Class of committed instruction
system.switch_cpus.commit.op_class_0::SimdSha1Hash            0      0.00%     68.80% # Class of committed instruction
system.switch_cpus.commit.op_class_0::SimdSha1Hash2            0      0.00%     68.80% # Class of committed instruction
system.switch_cpus.commit.op_class_0::SimdSha256Hash            0      0.00%     68.80% # Class of committed instruction
system.switch_cpus.commit.op_class_0::SimdSha256Hash2            0      0.00%     68.80% # Class of committed instruction
system.switch_cpus.commit.op_class_0::SimdShaSigma2            0      0.00%     68.80% # Class of committed instruction
system.switch_cpus.commit.op_class_0::SimdShaSigma3            0      0.00%     68.80% # Class of committed instruction
system.switch_cpus.commit.op_class_0::SimdPredAlu            0      0.00%     68.80% # Class of committed instruction
system.switch_cpus.commit.op_class_0::MemRead      3381319     21.08%     89.88% # Class of committed instruction
system.switch_cpus.commit.op_class_0::MemWrite      1397848      8.72%     98.60% # Class of committed instruction
system.switch_cpus.commit.op_class_0::FloatMemRead       224289      1.40%    100.00% # Class of committed instruction
system.switch_cpus.commit.op_class_0::FloatMemWrite          347      0.00%    100.00% # Class of committed instruction
system.switch_cpus.commit.op_class_0::IprAccess            0      0.00%    100.00% # Class of committed instruction
system.switch_cpus.commit.op_class_0::InstPrefetch            0      0.00%    100.00% # Class of committed instruction
system.switch_cpus.commit.op_class_0::total     16039466                       # Class of committed instruction
system.switch_cpus.commit.refs                5003803                       # Number of memory references committed
system.switch_cpus.commit.swp_count                 0                       # Number of s/w prefetches committed
system.switch_cpus.commit.vec_insts                 0                       # Number of committed Vector instructions.
system.switch_cpus.committedInsts            10000000                       # Number of Instructions Simulated
system.switch_cpus.committedOps              16039466                       # Number of Ops (including micro ops) Simulated
system.switch_cpus.cpi                       0.524223                       # CPI: Cycles Per Instruction
system.switch_cpus.cpi_total                 0.524223                       # CPI: Total CPI of All Threads
system.switch_cpus.decode.BlockedCycles       2329322                       # Number of cycles decode is blocked
system.switch_cpus.decode.DecodedInsts       17652742                       # Number of instructions handled by decode
system.switch_cpus.decode.IdleCycles           552881                       # Number of cycles decode is idle
system.switch_cpus.decode.RunCycles           1569860                       # Number of cycles decode is running
system.switch_cpus.decode.SquashCycles          20975                       # Number of cycles decode is squashing
system.switch_cpus.decode.UnblockCycles        759546                       # Number of cycles decode is unblocking
system.switch_cpus.dtb.rdAccesses             3696494                       # TLB accesses on read requests
system.switch_cpus.dtb.rdMisses                    61                       # TLB misses on read requests
system.switch_cpus.dtb.wrAccesses             1412384                       # TLB accesses on write requests
system.switch_cpus.dtb.wrMisses                    78                       # TLB misses on write requests
system.switch_cpus.fetch.Branches              946445                       # Number of branches that fetch encountered
system.switch_cpus.fetch.CacheLines            857302                       # Number of cache lines fetched
system.switch_cpus.fetch.Cycles               4340075                       # Number of cycles fetch has run and was not squashing or blocked
system.switch_cpus.fetch.IcacheSquashes          4061                       # Number of outstanding Icache misses that were squashed
system.switch_cpus.fetch.Insts               10970991                       # Number of instructions fetch has processed
system.switch_cpus.fetch.MiscStallCycles           27                       # Number of cycles fetch has spent waiting on interrupts, or bad addresses, or out of MSHRs
system.switch_cpus.fetch.PendingTrapStallCycles          164                       # Number of stall cycles due to pending traps
system.switch_cpus.fetch.SquashCycles           41950                       # Number of cycles fetch has spent squashing
system.switch_cpus.fetch.branchRate          0.180543                       # Number of branch fetches per cycle
system.switch_cpus.fetch.icacheStallCycles       871351                       # Number of cycles fetch is stalled on an Icache miss
system.switch_cpus.fetch.predictedBranches       540822                       # Number of branches that fetch has predicted taken
system.switch_cpus.fetch.rate                2.092812                       # Number of inst fetches per cycle
system.switch_cpus.fetch.rateDist::samples      5232592                       # Number of instructions fetched each cycle (Total)
system.switch_cpus.fetch.rateDist::mean      3.419802                       # Number of instructions fetched each cycle (Total)
system.switch_cpus.fetch.rateDist::stdev     3.554947                       # Number of instructions fetched each cycle (Total)
system.switch_cpus.fetch.rateDist::underflows            0      0.00%      0.00% # Number of instructions fetched each cycle (Total)
system.switch_cpus.fetch.rateDist::0          2421916     46.29%     46.29% # Number of instructions fetched each cycle (Total)
system.switch_cpus.fetch.rateDist::1           133826      2.56%     48.84% # Number of instructions fetched each cycle (Total)
system.switch_cpus.fetch.rateDist::2           104612      2.00%     50.84% # Number of instructions fetched each cycle (Total)
system.switch_cpus.fetch.rateDist::3           149267      2.85%     53.69% # Number of instructions fetched each cycle (Total)
system.switch_cpus.fetch.rateDist::4           180528      3.45%     57.14% # Number of instructions fetched each cycle (Total)
system.switch_cpus.fetch.rateDist::5           342551      6.55%     63.69% # Number of instructions fetched each cycle (Total)
system.switch_cpus.fetch.rateDist::6           169228      3.23%     66.93% # Number of instructions fetched each cycle (Total)
system.switch_cpus.fetch.rateDist::7           191972      3.67%     70.59% # Number of instructions fetched each cycle (Total)
system.switch_cpus.fetch.rateDist::8          1538692     29.41%    100.00% # Number of instructions fetched each cycle (Total)
system.switch_cpus.fetch.rateDist::overflows            0      0.00%    100.00% # Number of instructions fetched each cycle (Total)
system.switch_cpus.fetch.rateDist::min_value            0                       # Number of instructions fetched each cycle (Total)
system.switch_cpus.fetch.rateDist::max_value            8                       # Number of instructions fetched each cycle (Total)
system.switch_cpus.fetch.rateDist::total      5232592                       # Number of instructions fetched each cycle (Total)
system.switch_cpus.fp_regfile_reads           2747099                       # number of floating regfile reads
system.switch_cpus.fp_regfile_writes          1369404                       # number of floating regfile writes
system.switch_cpus.idleCycles                    9633                       # Total number of cycles that the CPU has spent unscheduled due to idling
system.switch_cpus.iew.branchMispredicts        34295                       # Number of branch mispredicts detected at execute
system.switch_cpus.iew.exec_branches           781964                       # Number of branches executed
system.switch_cpus.iew.exec_nop                     0                       # number of nop insts executed
system.switch_cpus.iew.exec_rate             3.202295                       # Inst execution rate
system.switch_cpus.iew.exec_refs              5103307                       # number of memory reference insts executed
system.switch_cpus.iew.exec_stores            1412384                       # Number of stores executed
system.switch_cpus.iew.exec_swp                     0                       # number of swp insts executed
system.switch_cpus.iew.iewBlockCycles          149016                       # Number of cycles IEW is blocking
system.switch_cpus.iew.iewDispLoadInsts       3724150                       # Number of dispatched load instructions
system.switch_cpus.iew.iewDispNonSpecInsts            3                       # Number of dispatched non-speculative instructions
system.switch_cpus.iew.iewDispSquashedInsts          677                       # Number of squashed instructions skipped by dispatch
system.switch_cpus.iew.iewDispStoreInsts      1430047                       # Number of dispatched store instructions
system.switch_cpus.iew.iewDispatchedInsts     17298848                       # Number of instructions dispatched to IQ
system.switch_cpus.iew.iewExecLoadInsts       3690923                       # Number of load instructions executed
system.switch_cpus.iew.iewExecSquashedInsts        35279                       # Number of squashed instructions skipped in execute
system.switch_cpus.iew.iewExecutedInsts      16787150                       # Number of executed instructions
system.switch_cpus.iew.iewIQFullEvents            115                       # Number of times the IQ has become full, causing a stall
system.switch_cpus.iew.iewIdleCycles                0                       # Number of cycles IEW is idle
system.switch_cpus.iew.iewLSQFullEvents         18312                       # Number of times the LSQ has become full, causing a stall
system.switch_cpus.iew.iewSquashCycles          20975                       # Number of cycles IEW is squashing
system.switch_cpus.iew.iewUnblockCycles         18444                       # Number of cycles IEW is unblocking
system.switch_cpus.iew.lsq.thread0.blockedLoads            0                       # Number of blocked loads due to partial load-store forwarding
system.switch_cpus.iew.lsq.thread0.cacheBlocked          133                       # Number of times an access to memory failed due to the cache being blocked
system.switch_cpus.iew.lsq.thread0.forwLoads       383338                       # Number of loads that had data forwarded from stores
system.switch_cpus.iew.lsq.thread0.ignoredResponses           47                       # Number of memory responses ignored because the instruction is squashed
system.switch_cpus.iew.lsq.thread0.invAddrLoads            0                       # Number of loads ignored due to an invalid address
system.switch_cpus.iew.lsq.thread0.invAddrSwpfs            0                       # Number of software prefetches ignored due to an invalid address
system.switch_cpus.iew.lsq.thread0.memOrderViolation          257                       # Number of memory ordering violations
system.switch_cpus.iew.lsq.thread0.rescheduledLoads            0                       # Number of loads that were rescheduled
system.switch_cpus.iew.lsq.thread0.squashedLoads       118525                       # Number of loads squashed
system.switch_cpus.iew.lsq.thread0.squashedStores        31847                       # Number of stores squashed
system.switch_cpus.iew.memOrderViolationEvents          257                       # Number of memory order violations
system.switch_cpus.iew.predictedNotTakenIncorrect        28708                       # Number of branches that were predicted not taken incorrectly
system.switch_cpus.iew.predictedTakenIncorrect         5587                       # Number of branches that were predicted taken incorrectly
system.switch_cpus.iew.wb_consumers          26964133                       # num instructions consuming a value
system.switch_cpus.iew.wb_count              16769198                       # cumulative count of insts written-back
system.switch_cpus.iew.wb_fanout             0.498526                       # average fanout of values written-back
system.switch_cpus.iew.wb_producers          13442313                       # num instructions producing a value
system.switch_cpus.iew.wb_rate               3.198870                       # insts written-back per cycle
system.switch_cpus.iew.wb_sent               16776445                       # cumulative count of insts sent to commit
system.switch_cpus.int_regfile_reads         29053455                       # number of integer regfile reads
system.switch_cpus.int_regfile_writes        13104164                       # number of integer regfile writes
system.switch_cpus.ipc                       1.907587                       # IPC: Instructions Per Cycle
system.switch_cpus.ipc_total                 1.907587                       # IPC: Total IPC of All Threads
system.switch_cpus.iq.FU_type_0::No_OpClass       100228      0.60%      0.60% # Type of FU issued
system.switch_cpus.iq.FU_type_0::IntAlu      10416254     61.92%     62.51% # Type of FU issued
system.switch_cpus.iq.FU_type_0::IntMult        86854      0.52%     63.03% # Type of FU issued
system.switch_cpus.iq.FU_type_0::IntDiv             0      0.00%     63.03% # Type of FU issued
system.switch_cpus.iq.FU_type_0::FloatAdd        35078      0.21%     63.24% # Type of FU issued
system.switch_cpus.iq.FU_type_0::FloatCmp            0      0.00%     63.24% # Type of FU issued
system.switch_cpus.iq.FU_type_0::FloatCvt            0      0.00%     63.24% # Type of FU issued
system.switch_cpus.iq.FU_type_0::FloatMult            0      0.00%     63.24% # Type of FU issued
system.switch_cpus.iq.FU_type_0::FloatMultAcc            0      0.00%     63.24% # Type of FU issued
system.switch_cpus.iq.FU_type_0::FloatDiv            0      0.00%     63.24% # Type of FU issued
system.switch_cpus.iq.FU_type_0::FloatMisc            0      0.00%     63.24% # Type of FU issued
system.switch_cpus.iq.FU_type_0::FloatSqrt            0      0.00%     63.24% # Type of FU issued
system.switch_cpus.iq.FU_type_0::SimdAdd        21092      0.13%     63.36% # Type of FU issued
system.switch_cpus.iq.FU_type_0::SimdAddAcc            0      0.00%     63.36% # Type of FU issued
system.switch_cpus.iq.FU_type_0::SimdAlu       342987      2.04%     65.40% # Type of FU issued
system.switch_cpus.iq.FU_type_0::SimdCmp            0      0.00%     65.40% # Type of FU issued
system.switch_cpus.iq.FU_type_0::SimdCvt       129422      0.77%     66.17% # Type of FU issued
system.switch_cpus.iq.FU_type_0::SimdMisc       161129      0.96%     67.13% # Type of FU issued
system.switch_cpus.iq.FU_type_0::SimdMult            0      0.00%     67.13% # Type of FU issued
system.switch_cpus.iq.FU_type_0::SimdMultAcc            0      0.00%     67.13% # Type of FU issued
system.switch_cpus.iq.FU_type_0::SimdShift        63354      0.38%     67.51% # Type of FU issued
system.switch_cpus.iq.FU_type_0::SimdShiftAcc            0      0.00%     67.51% # Type of FU issued
system.switch_cpus.iq.FU_type_0::SimdDiv            0      0.00%     67.51% # Type of FU issued
system.switch_cpus.iq.FU_type_0::SimdSqrt            0      0.00%     67.51% # Type of FU issued
system.switch_cpus.iq.FU_type_0::SimdFloatAdd       139052      0.83%     68.33% # Type of FU issued
system.switch_cpus.iq.FU_type_0::SimdFloatAlu            0      0.00%     68.33% # Type of FU issued
system.switch_cpus.iq.FU_type_0::SimdFloatCmp           49      0.00%     68.33% # Type of FU issued
system.switch_cpus.iq.FU_type_0::SimdFloatCvt       176478      1.05%     69.38% # Type of FU issued
system.switch_cpus.iq.FU_type_0::SimdFloatDiv        23360      0.14%     69.52% # Type of FU issued
system.switch_cpus.iq.FU_type_0::SimdFloatMisc            0      0.00%     69.52% # Type of FU issued
system.switch_cpus.iq.FU_type_0::SimdFloatMult        13125      0.08%     69.60% # Type of FU issued
system.switch_cpus.iq.FU_type_0::SimdFloatMultAcc            0      0.00%     69.60% # Type of FU issued
system.switch_cpus.iq.FU_type_0::SimdFloatSqrt            0      0.00%     69.60% # Type of FU issued
system.switch_cpus.iq.FU_type_0::SimdReduceAdd            0      0.00%     69.60% # Type of FU issued
system.switch_cpus.iq.FU_type_0::SimdReduceAlu            0      0.00%     69.60% # Type of FU issued
system.switch_cpus.iq.FU_type_0::SimdReduceCmp            0      0.00%     69.60% # Type of FU issued
system.switch_cpus.iq.FU_type_0::SimdFloatReduceAdd            0      0.00%     69.60% # Type of FU issued
system.switch_cpus.iq.FU_type_0::SimdFloatReduceCmp            0      0.00%     69.60% # Type of FU issued
system.switch_cpus.iq.FU_type_0::SimdAes            0      0.00%     69.60% # Type of FU issued
system.switch_cpus.iq.FU_type_0::SimdAesMix            0      0.00%     69.60% # Type of FU issued
system.switch_cpus.iq.FU_type_0::SimdSha1Hash            0      0.00%     69.60% # Type of FU issued
system.switch_cpus.iq.FU_type_0::SimdSha1Hash2            0      0.00%     69.60% # Type of FU issued
system.switch_cpus.iq.FU_type_0::SimdSha256Hash            0      0.00%     69.60% # Type of FU issued
system.switch_cpus.iq.FU_type_0::SimdSha256Hash2            0      0.00%     69.60% # Type of FU issued
system.switch_cpus.iq.FU_type_0::SimdShaSigma2            0      0.00%     69.60% # Type of FU issued
system.switch_cpus.iq.FU_type_0::SimdShaSigma3            0      0.00%     69.60% # Type of FU issued
system.switch_cpus.iq.FU_type_0::SimdPredAlu            0      0.00%     69.60% # Type of FU issued
system.switch_cpus.iq.FU_type_0::MemRead      3419391     20.33%     89.93% # Type of FU issued
system.switch_cpus.iq.FU_type_0::MemWrite      1414112      8.41%     98.33% # Type of FU issued
system.switch_cpus.iq.FU_type_0::FloatMemRead       279992      1.66%    100.00% # Type of FU issued
system.switch_cpus.iq.FU_type_0::FloatMemWrite          480      0.00%    100.00% # Type of FU issued
system.switch_cpus.iq.FU_type_0::IprAccess            0      0.00%    100.00% # Type of FU issued
system.switch_cpus.iq.FU_type_0::InstPrefetch            0      0.00%    100.00% # Type of FU issued
system.switch_cpus.iq.FU_type_0::total       16822437                       # Type of FU issued
system.switch_cpus.iq.fp_alu_accesses         1587988                       # Number of floating point alu accesses
system.switch_cpus.iq.fp_inst_queue_reads      3152924                       # Number of floating instruction queue reads
system.switch_cpus.iq.fp_inst_queue_wakeup_accesses      1547534                       # Number of floating instruction queue wakeup accesses
system.switch_cpus.iq.fp_inst_queue_writes      1900590                       # Number of floating instruction queue writes
system.switch_cpus.iq.fu_busy_cnt              198899                       # FU busy when requested
system.switch_cpus.iq.fu_busy_rate           0.011823                       # FU busy rate (busy events/executed inst)
system.switch_cpus.iq.fu_full::No_OpClass            0      0.00%      0.00% # attempts to use FU when none available
system.switch_cpus.iq.fu_full::IntAlu          118266     59.46%     59.46% # attempts to use FU when none available
system.switch_cpus.iq.fu_full::IntMult              0      0.00%     59.46% # attempts to use FU when none available
system.switch_cpus.iq.fu_full::IntDiv               0      0.00%     59.46% # attempts to use FU when none available
system.switch_cpus.iq.fu_full::FloatAdd             0      0.00%     59.46% # attempts to use FU when none available
system.switch_cpus.iq.fu_full::FloatCmp             0      0.00%     59.46% # attempts to use FU when none available
system.switch_cpus.iq.fu_full::FloatCvt             0      0.00%     59.46% # attempts to use FU when none available
system.switch_cpus.iq.fu_full::FloatMult            0      0.00%     59.46% # attempts to use FU when none available
system.switch_cpus.iq.fu_full::FloatMultAcc            0      0.00%     59.46% # attempts to use FU when none available
system.switch_cpus.iq.fu_full::FloatDiv             0      0.00%     59.46% # attempts to use FU when none available
system.switch_cpus.iq.fu_full::FloatMisc            0      0.00%     59.46% # attempts to use FU when none available
system.switch_cpus.iq.fu_full::FloatSqrt            0      0.00%     59.46% # attempts to use FU when none available
system.switch_cpus.iq.fu_full::SimdAdd              0      0.00%     59.46% # attempts to use FU when none available
system.switch_cpus.iq.fu_full::SimdAddAcc            0      0.00%     59.46% # attempts to use FU when none available
system.switch_cpus.iq.fu_full::SimdAlu             97      0.05%     59.51% # attempts to use FU when none available
system.switch_cpus.iq.fu_full::SimdCmp              0      0.00%     59.51% # attempts to use FU when none available
system.switch_cpus.iq.fu_full::SimdCvt           3350      1.68%     61.19% # attempts to use FU when none available
system.switch_cpus.iq.fu_full::SimdMisc            26      0.01%     61.21% # attempts to use FU when none available
system.switch_cpus.iq.fu_full::SimdMult             0      0.00%     61.21% # attempts to use FU when none available
system.switch_cpus.iq.fu_full::SimdMultAcc            0      0.00%     61.21% # attempts to use FU when none available
system.switch_cpus.iq.fu_full::SimdShift            3      0.00%     61.21% # attempts to use FU when none available
system.switch_cpus.iq.fu_full::SimdShiftAcc            0      0.00%     61.21% # attempts to use FU when none available
system.switch_cpus.iq.fu_full::SimdDiv              0      0.00%     61.21% # attempts to use FU when none available
system.switch_cpus.iq.fu_full::SimdSqrt             0      0.00%     61.21% # attempts to use FU when none available
system.switch_cpus.iq.fu_full::SimdFloatAdd         2350      1.18%     62.39% # attempts to use FU when none available
system.switch_cpus.iq.fu_full::SimdFloatAlu            0      0.00%     62.39% # attempts to use FU when none available
system.switch_cpus.iq.fu_full::SimdFloatCmp            0      0.00%     62.39% # attempts to use FU when none available
system.switch_cpus.iq.fu_full::SimdFloatCvt         9873      4.96%     67.35% # attempts to use FU when none available
system.switch_cpus.iq.fu_full::SimdFloatDiv            0      0.00%     67.35% # attempts to use FU when none available
system.switch_cpus.iq.fu_full::SimdFloatMisc            0      0.00%     67.35% # attempts to use FU when none available
system.switch_cpus.iq.fu_full::SimdFloatMult            0      0.00%     67.35% # attempts to use FU when none available
system.switch_cpus.iq.fu_full::SimdFloatMultAcc            0      0.00%     67.35% # attempts to use FU when none available
system.switch_cpus.iq.fu_full::SimdFloatSqrt            0      0.00%     67.35% # attempts to use FU when none available
system.switch_cpus.iq.fu_full::SimdReduceAdd            0      0.00%     67.35% # attempts to use FU when none available
system.switch_cpus.iq.fu_full::SimdReduceAlu            0      0.00%     67.35% # attempts to use FU when none available
system.switch_cpus.iq.fu_full::SimdReduceCmp            0      0.00%     67.35% # attempts to use FU when none available
system.switch_cpus.iq.fu_full::SimdFloatReduceAdd            0      0.00%     67.35% # attempts to use FU when none available
system.switch_cpus.iq.fu_full::SimdFloatReduceCmp            0      0.00%     67.35% # attempts to use FU when none available
system.switch_cpus.iq.fu_full::SimdAes              0      0.00%     67.35% # attempts to use FU when none available
system.switch_cpus.iq.fu_full::SimdAesMix            0      0.00%     67.35% # attempts to use FU when none available
system.switch_cpus.iq.fu_full::SimdSha1Hash            0      0.00%     67.35% # attempts to use FU when none available
system.switch_cpus.iq.fu_full::SimdSha1Hash2            0      0.00%     67.35% # attempts to use FU when none available
system.switch_cpus.iq.fu_full::SimdSha256Hash            0      0.00%     67.35% # attempts to use FU when none available
system.switch_cpus.iq.fu_full::SimdSha256Hash2            0      0.00%     67.35% # attempts to use FU when none available
system.switch_cpus.iq.fu_full::SimdShaSigma2            0      0.00%     67.35% # attempts to use FU when none available
system.switch_cpus.iq.fu_full::SimdShaSigma3            0      0.00%     67.35% # attempts to use FU when none available
system.switch_cpus.iq.fu_full::SimdPredAlu            0      0.00%     67.35% # attempts to use FU when none available
system.switch_cpus.iq.fu_full::MemRead          56700     28.51%     95.86% # attempts to use FU when none available
system.switch_cpus.iq.fu_full::MemWrite           409      0.21%     96.07% # attempts to use FU when none available
system.switch_cpus.iq.fu_full::FloatMemRead         7825      3.93%    100.00% # attempts to use FU when none available
system.switch_cpus.iq.fu_full::FloatMemWrite            0      0.00%    100.00% # attempts to use FU when none available
system.switch_cpus.iq.fu_full::IprAccess            0      0.00%    100.00% # attempts to use FU when none available
system.switch_cpus.iq.fu_full::InstPrefetch            0      0.00%    100.00% # attempts to use FU when none available
system.switch_cpus.iq.int_alu_accesses       15333120                       # Number of integer alu accesses
system.switch_cpus.iq.int_inst_queue_reads     35998612                       # Number of integer instruction queue reads
system.switch_cpus.iq.int_inst_queue_wakeup_accesses     15221664                       # Number of integer instruction queue wakeup accesses
system.switch_cpus.iq.int_inst_queue_writes     16657816                       # Number of integer instruction queue writes
system.switch_cpus.iq.iqInstsAdded           17298834                       # Number of instructions added to the IQ (excludes non-spec)
system.switch_cpus.iq.iqInstsIssued          16822437                       # Number of instructions issued
system.switch_cpus.iq.iqNonSpecInstsAdded           14                       # Number of non-speculative instructions added to the IQ
system.switch_cpus.iq.iqSquashedInstsExamined      1259302                       # Number of squashed instructions iterated over during squash; mainly for profiling
system.switch_cpus.iq.iqSquashedInstsIssued        75179                       # Number of squashed instructions issued
system.switch_cpus.iq.iqSquashedNonSpecRemoved           14                       # Number of squashed non-spec instructions that were removed
system.switch_cpus.iq.iqSquashedOperandsExamined      1778099                       # Number of squashed operands that are examined and possibly removed from graph
system.switch_cpus.iq.issued_per_cycle::samples      5232592                       # Number of insts issued each cycle
system.switch_cpus.iq.issued_per_cycle::mean     3.214934                       # Number of insts issued each cycle
system.switch_cpus.iq.issued_per_cycle::stdev     2.235509                       # Number of insts issued each cycle
system.switch_cpus.iq.issued_per_cycle::underflows            0      0.00%      0.00% # Number of insts issued each cycle
system.switch_cpus.iq.issued_per_cycle::0       691262     13.21%     13.21% # Number of insts issued each cycle
system.switch_cpus.iq.issued_per_cycle::1       613895     11.73%     24.94% # Number of insts issued each cycle
system.switch_cpus.iq.issued_per_cycle::2       880723     16.83%     41.77% # Number of insts issued each cycle
system.switch_cpus.iq.issued_per_cycle::3       847702     16.20%     57.97% # Number of insts issued each cycle
system.switch_cpus.iq.issued_per_cycle::4       720064     13.76%     71.74% # Number of insts issued each cycle
system.switch_cpus.iq.issued_per_cycle::5       619136     11.83%     83.57% # Number of insts issued each cycle
system.switch_cpus.iq.issued_per_cycle::6       347963      6.65%     90.22% # Number of insts issued each cycle
system.switch_cpus.iq.issued_per_cycle::7       254500      4.86%     95.08% # Number of insts issued each cycle
system.switch_cpus.iq.issued_per_cycle::8       257347      4.92%    100.00% # Number of insts issued each cycle
system.switch_cpus.iq.issued_per_cycle::overflows            0      0.00%    100.00% # Number of insts issued each cycle
system.switch_cpus.iq.issued_per_cycle::min_value            0                       # Number of insts issued each cycle
system.switch_cpus.iq.issued_per_cycle::max_value            8                       # Number of insts issued each cycle
system.switch_cpus.iq.issued_per_cycle::total      5232592                       # Number of insts issued each cycle
system.switch_cpus.iq.rate                   3.209026                       # Inst issue rate
system.switch_cpus.iq.vec_alu_accesses              0                       # Number of vector alu accesses
system.switch_cpus.iq.vec_inst_queue_reads            0                       # Number of vector instruction queue reads
system.switch_cpus.iq.vec_inst_queue_wakeup_accesses            0                       # Number of vector instruction queue wakeup accesses
system.switch_cpus.iq.vec_inst_queue_writes            0                       # Number of vector instruction queue writes
system.switch_cpus.itb.rdAccesses                   0                       # TLB accesses on read requests
system.switch_cpus.itb.rdMisses                     0                       # TLB misses on read requests
system.switch_cpus.itb.wrAccesses              857330                       # TLB accesses on write requests
system.switch_cpus.itb.wrMisses                    44                       # TLB misses on write requests
system.switch_cpus.memDep0.conflictingLoads       335355                       # Number of conflicting loads.
system.switch_cpus.memDep0.conflictingStores       286900                       # Number of conflicting stores.
system.switch_cpus.memDep0.insertedLoads      3724150                       # Number of loads inserted to the mem dependence unit.
system.switch_cpus.memDep0.insertedStores      1430047                       # Number of stores inserted to the mem dependence unit.
system.switch_cpus.misc_regfile_reads         6739654                       # number of misc regfile reads
system.switch_cpus.misc_regfile_writes              1                       # number of misc regfile writes
system.switch_cpus.numCycles                  5242225                       # number of cpu cycles simulated
system.switch_cpus.numWorkItemsCompleted            0                       # number of work items this cpu completed
system.switch_cpus.numWorkItemsStarted              0                       # number of work items this cpu started
system.switch_cpus.rename.BlockCycles          201743                       # Number of cycles rename is blocking
system.switch_cpus.rename.CommittedMaps      20732556                       # Number of HB maps that are committed
system.switch_cpus.rename.IQFullEvents         139331                       # Number of times rename has blocked due to IQ full
system.switch_cpus.rename.IdleCycles           874015                       # Number of cycles rename is idle
system.switch_cpus.rename.LQFullEvents         510730                       # Number of times rename has blocked due to LQ full
system.switch_cpus.rename.ROBFullEvents          2631                       # Number of times rename has blocked due to ROB full
system.switch_cpus.rename.RenameLookups      54999671                       # Number of register rename lookups that rename has made
system.switch_cpus.rename.RenamedInsts       17534572                       # Number of instructions processed by rename
system.switch_cpus.rename.RenamedOperands     22506310                       # Number of destination operands rename has renamed
system.switch_cpus.rename.RunCycles           1997907                       # Number of cycles rename is running
system.switch_cpus.rename.SQFullEvents        1234912                       # Number of times rename has blocked due to SQ full
system.switch_cpus.rename.SquashCycles          20975                       # Number of cycles rename is squashing
system.switch_cpus.rename.UnblockCycles       2137944                       # Number of cycles rename is unblocking
system.switch_cpus.rename.UndoneMaps          1773616                       # Number of HB maps that are undone due to squashing
system.switch_cpus.rename.fp_rename_lookups      3014205                       # Number of floating rename lookups
system.switch_cpus.rename.int_rename_lookups     30084851                       # Number of integer rename lookups
system.switch_cpus.rename.serializeStallCycles            0                       # count of cycles rename stalled for serializing inst
system.switch_cpus.rename.serializingInsts            0                       # count of serializing insts renamed
system.switch_cpus.rename.skidInsts           4197516                       # count of insts added to the skid buffer
system.switch_cpus.rename.tempSerializingInsts            0                       # count of temporary serializing insts renamed
system.switch_cpus.rob.rob_reads             21104805                       # The number of ROB reads
system.switch_cpus.rob.rob_writes            34767159                       # The number of ROB writes
system.switch_cpus.timesIdled                     140                       # Number of times that the entire CPU went into an idle state and unscheduled itself
system.tol2bus.snoop_filter.hit_multi_requests            0                       # Number of requests hitting in the snoop filter with multiple (>1) holders of the requested data.
system.tol2bus.snoop_filter.hit_multi_snoops            0                       # Number of snoops hitting in the snoop filter with multiple (>1) holders of the requested data.
system.tol2bus.snoop_filter.hit_single_requests        24702                       # Number of requests hitting in the snoop filter with a single holder of the requested data.
system.tol2bus.snoop_filter.hit_single_snoops           30                       # Number of snoops hitting in the snoop filter with a single holder of the requested data.
system.tol2bus.snoop_filter.tot_requests        50553                       # Total number of requests made to the snoop filter.
system.tol2bus.snoop_filter.tot_snoops             30                       # Total number of snoops made to the snoop filter.
system.membus.pwrStateResidencyTicks::UNDEFINED 81939689380500                       # Cumulative time (in ticks) in various power states
system.membus.trans_dist::ReadResp                670                       # Transaction distribution
system.membus.trans_dist::WritebackDirty           20                       # Transaction distribution
system.membus.trans_dist::CleanEvict               16                       # Transaction distribution
system.membus.trans_dist::ReadExReq              2062                       # Transaction distribution
system.membus.trans_dist::ReadExResp             2062                       # Transaction distribution
system.membus.trans_dist::ReadSharedReq           670                       # Transaction distribution
system.membus.pkt_count_system.l2.mem_side::system.mem_ctrls.port         5500                       # Packet count per connected master and slave (bytes)
system.membus.pkt_count_system.l2.mem_side::total         5500                       # Packet count per connected master and slave (bytes)
system.membus.pkt_count::total                   5500                       # Packet count per connected master and slave (bytes)
system.membus.pkt_size_system.l2.mem_side::system.mem_ctrls.port       176128                       # Cumulative packet size per connected master and slave (bytes)
system.membus.pkt_size_system.l2.mem_side::total       176128                       # Cumulative packet size per connected master and slave (bytes)
system.membus.pkt_size::total                  176128                       # Cumulative packet size per connected master and slave (bytes)
system.membus.snoops                                0                       # Total snoops (count)
system.membus.snoopTraffic                          0                       # Total snoop traffic (bytes)
system.membus.snoop_fanout::samples              2732                       # Request fanout histogram
system.membus.snoop_fanout::mean                    0                       # Request fanout histogram
system.membus.snoop_fanout::stdev                   0                       # Request fanout histogram
system.membus.snoop_fanout::underflows              0      0.00%      0.00% # Request fanout histogram
system.membus.snoop_fanout::0                    2732    100.00%    100.00% # Request fanout histogram
system.membus.snoop_fanout::1                       0      0.00%    100.00% # Request fanout histogram
system.membus.snoop_fanout::overflows               0      0.00%    100.00% # Request fanout histogram
system.membus.snoop_fanout::min_value               0                       # Request fanout histogram
system.membus.snoop_fanout::max_value               0                       # Request fanout histogram
system.membus.snoop_fanout::total                2732                       # Request fanout histogram
system.membus.reqLayer2.occupancy             3537500                       # Layer occupancy (ticks)
system.membus.reqLayer2.utilization               0.1                       # Layer utilization (%)
system.membus.respLayer1.occupancy           14506500                       # Layer occupancy (ticks)
system.membus.respLayer1.utilization              0.6                       # Layer utilization (%)
system.switch_cpus.pwrStateResidencyTicks::OFF   2621123000                       # Cumulative time (in ticks) in various power states
system.switch_cpus.dtb.walker.pwrStateResidencyTicks::UNDEFINED 81939689380500                       # Cumulative time (in ticks) in various power states
system.switch_cpus.itb.walker.pwrStateResidencyTicks::UNDEFINED 81939689380500                       # Cumulative time (in ticks) in various power states
system.tol2bus.pwrStateResidencyTicks::UNDEFINED 81939689380500                       # Cumulative time (in ticks) in various power states
system.tol2bus.trans_dist::ReadResp              6519                       # Transaction distribution
system.tol2bus.trans_dist::WritebackDirty        19026                       # Transaction distribution
system.tol2bus.trans_dist::WritebackClean          249                       # Transaction distribution
system.tol2bus.trans_dist::CleanEvict            5491                       # Transaction distribution
system.tol2bus.trans_dist::ReadExReq            19332                       # Transaction distribution
system.tol2bus.trans_dist::ReadExResp           19332                       # Transaction distribution
system.tol2bus.trans_dist::ReadCleanReq           374                       # Transaction distribution
system.tol2bus.trans_dist::ReadSharedReq         6145                       # Transaction distribution
system.tol2bus.pkt_count_system.cpu.icache.mem_side::system.l2.cpu_side          997                       # Packet count per connected master and slave (bytes)
system.tol2bus.pkt_count_system.cpu.dcache.mem_side::system.l2.cpu_side        75407                       # Packet count per connected master and slave (bytes)
system.tol2bus.pkt_count::total                 76404                       # Packet count per connected master and slave (bytes)
system.tol2bus.pkt_size_system.cpu.icache.mem_side::system.l2.cpu_side        39872                       # Cumulative packet size per connected master and slave (bytes)
system.tol2bus.pkt_size_system.cpu.dcache.mem_side::system.l2.cpu_side      2846912                       # Cumulative packet size per connected master and slave (bytes)
system.tol2bus.pkt_size::total                2886784                       # Cumulative packet size per connected master and slave (bytes)
system.tol2bus.snoops                              64                       # Total snoops (count)
system.tol2bus.snoopTraffic                      1280                       # Total snoop traffic (bytes)
system.tol2bus.snoop_fanout::samples            25915                       # Request fanout histogram
system.tol2bus.snoop_fanout::mean            0.001158                       # Request fanout histogram
system.tol2bus.snoop_fanout::stdev           0.034005                       # Request fanout histogram
system.tol2bus.snoop_fanout::underflows             0      0.00%      0.00% # Request fanout histogram
system.tol2bus.snoop_fanout::0                  25885     99.88%     99.88% # Request fanout histogram
system.tol2bus.snoop_fanout::1                     30      0.12%    100.00% # Request fanout histogram
system.tol2bus.snoop_fanout::2                      0      0.00%    100.00% # Request fanout histogram
system.tol2bus.snoop_fanout::3                      0      0.00%    100.00% # Request fanout histogram
system.tol2bus.snoop_fanout::4                      0      0.00%    100.00% # Request fanout histogram
system.tol2bus.snoop_fanout::overflows              0      0.00%    100.00% # Request fanout histogram
system.tol2bus.snoop_fanout::min_value              0                       # Request fanout histogram
system.tol2bus.snoop_fanout::max_value              1                       # Request fanout histogram
system.tol2bus.snoop_fanout::total              25915                       # Request fanout histogram
system.tol2bus.reqLayer0.occupancy           44528000                       # Layer occupancy (ticks)
system.tol2bus.reqLayer0.utilization              1.7                       # Layer utilization (%)
system.tol2bus.respLayer1.occupancy          38206500                       # Layer occupancy (ticks)
system.tol2bus.respLayer1.utilization             1.5                       # Layer utilization (%)
system.tol2bus.respLayer0.occupancy            560498                       # Layer occupancy (ticks)
system.tol2bus.respLayer0.utilization             0.0                       # Layer utilization (%)
system.voltage_domain.voltage                       1                       # Voltage in Volts
system.clk_domain.clock                          1000                       # Clock period in ticks
system.l2.pwrStateResidencyTicks::UNDEFINED 81939689380500                       # Cumulative time (in ticks) in various power states
system.l2.demand_hits::.switch_cpus.inst          244                       # number of demand (read+write) hits
system.l2.demand_hits::.switch_cpus.data        22875                       # number of demand (read+write) hits
system.l2.demand_hits::total                    23119                       # number of demand (read+write) hits
system.l2.overall_hits::.switch_cpus.inst          244                       # number of overall hits
system.l2.overall_hits::.switch_cpus.data        22875                       # number of overall hits
system.l2.overall_hits::total                   23119                       # number of overall hits
system.l2.demand_misses::.cpu.inst                  1                       # number of demand (read+write) misses
system.l2.demand_misses::.cpu.data                  6                       # number of demand (read+write) misses
system.l2.demand_misses::.switch_cpus.inst          129                       # number of demand (read+write) misses
system.l2.demand_misses::.switch_cpus.data         2596                       # number of demand (read+write) misses
system.l2.demand_misses::total                   2732                       # number of demand (read+write) misses
system.l2.overall_misses::.cpu.inst                 1                       # number of overall misses
system.l2.overall_misses::.cpu.data                 6                       # number of overall misses
system.l2.overall_misses::.switch_cpus.inst          129                       # number of overall misses
system.l2.overall_misses::.switch_cpus.data         2596                       # number of overall misses
system.l2.overall_misses::total                  2732                       # number of overall misses
system.l2.demand_miss_latency::.switch_cpus.inst     10670000                       # number of demand (read+write) miss cycles
system.l2.demand_miss_latency::.switch_cpus.data    205854000                       # number of demand (read+write) miss cycles
system.l2.demand_miss_latency::total        216524000                       # number of demand (read+write) miss cycles
system.l2.overall_miss_latency::.switch_cpus.inst     10670000                       # number of overall miss cycles
system.l2.overall_miss_latency::.switch_cpus.data    205854000                       # number of overall miss cycles
system.l2.overall_miss_latency::total       216524000                       # number of overall miss cycles
system.l2.demand_accesses::.cpu.inst                1                       # number of demand (read+write) accesses
system.l2.demand_accesses::.cpu.data                6                       # number of demand (read+write) accesses
system.l2.demand_accesses::.switch_cpus.inst          373                       # number of demand (read+write) accesses
system.l2.demand_accesses::.switch_cpus.data        25471                       # number of demand (read+write) accesses
system.l2.demand_accesses::total                25851                       # number of demand (read+write) accesses
system.l2.overall_accesses::.cpu.inst               1                       # number of overall (read+write) accesses
system.l2.overall_accesses::.cpu.data               6                       # number of overall (read+write) accesses
system.l2.overall_accesses::.switch_cpus.inst          373                       # number of overall (read+write) accesses
system.l2.overall_accesses::.switch_cpus.data        25471                       # number of overall (read+write) accesses
system.l2.overall_accesses::total               25851                       # number of overall (read+write) accesses
system.l2.demand_miss_rate::.cpu.inst               1                       # miss rate for demand accesses
system.l2.demand_miss_rate::.cpu.data               1                       # miss rate for demand accesses
system.l2.demand_miss_rate::.switch_cpus.inst     0.345845                       # miss rate for demand accesses
system.l2.demand_miss_rate::.switch_cpus.data     0.101920                       # miss rate for demand accesses
system.l2.demand_miss_rate::total            0.105683                       # miss rate for demand accesses
system.l2.overall_miss_rate::.cpu.inst              1                       # miss rate for overall accesses
system.l2.overall_miss_rate::.cpu.data              1                       # miss rate for overall accesses
system.l2.overall_miss_rate::.switch_cpus.inst     0.345845                       # miss rate for overall accesses
system.l2.overall_miss_rate::.switch_cpus.data     0.101920                       # miss rate for overall accesses
system.l2.overall_miss_rate::total           0.105683                       # miss rate for overall accesses
system.l2.demand_avg_miss_latency::.switch_cpus.inst 82713.178295                       # average overall miss latency
system.l2.demand_avg_miss_latency::.switch_cpus.data 79296.610169                       # average overall miss latency
system.l2.demand_avg_miss_latency::total 79254.758419                       # average overall miss latency
system.l2.overall_avg_miss_latency::.switch_cpus.inst 82713.178295                       # average overall miss latency
system.l2.overall_avg_miss_latency::.switch_cpus.data 79296.610169                       # average overall miss latency
system.l2.overall_avg_miss_latency::total 79254.758419                       # average overall miss latency
system.l2.blocked_cycles::no_mshrs                  0                       # number of cycles access was blocked
system.l2.blocked_cycles::no_targets                0                       # number of cycles access was blocked
system.l2.blocked::no_mshrs                         0                       # number of cycles access was blocked
system.l2.blocked::no_targets                       0                       # number of cycles access was blocked
system.l2.avg_blocked_cycles::no_mshrs            nan                       # average number of cycles each access was blocked
system.l2.avg_blocked_cycles::no_targets          nan                       # average number of cycles each access was blocked
system.l2.writebacks::.writebacks                  20                       # number of writebacks
system.l2.writebacks::total                        20                       # number of writebacks
system.l2.demand_mshr_misses::.switch_cpus.inst          129                       # number of demand (read+write) MSHR misses
system.l2.demand_mshr_misses::.switch_cpus.data         2596                       # number of demand (read+write) MSHR misses
system.l2.demand_mshr_misses::total              2725                       # number of demand (read+write) MSHR misses
system.l2.overall_mshr_misses::.switch_cpus.inst          129                       # number of overall MSHR misses
system.l2.overall_mshr_misses::.switch_cpus.data         2596                       # number of overall MSHR misses
system.l2.overall_mshr_misses::total             2725                       # number of overall MSHR misses
system.l2.demand_mshr_miss_latency::.switch_cpus.inst      9380000                       # number of demand (read+write) MSHR miss cycles
system.l2.demand_mshr_miss_latency::.switch_cpus.data    179894000                       # number of demand (read+write) MSHR miss cycles
system.l2.demand_mshr_miss_latency::total    189274000                       # number of demand (read+write) MSHR miss cycles
system.l2.overall_mshr_miss_latency::.switch_cpus.inst      9380000                       # number of overall MSHR miss cycles
system.l2.overall_mshr_miss_latency::.switch_cpus.data    179894000                       # number of overall MSHR miss cycles
system.l2.overall_mshr_miss_latency::total    189274000                       # number of overall MSHR miss cycles
system.l2.demand_mshr_miss_rate::.switch_cpus.inst     0.345845                       # mshr miss rate for demand accesses
system.l2.demand_mshr_miss_rate::.switch_cpus.data     0.101920                       # mshr miss rate for demand accesses
system.l2.demand_mshr_miss_rate::total       0.105412                       # mshr miss rate for demand accesses
system.l2.overall_mshr_miss_rate::.switch_cpus.inst     0.345845                       # mshr miss rate for overall accesses
system.l2.overall_mshr_miss_rate::.switch_cpus.data     0.101920                       # mshr miss rate for overall accesses
system.l2.overall_mshr_miss_rate::total      0.105412                       # mshr miss rate for overall accesses
system.l2.demand_avg_mshr_miss_latency::.switch_cpus.inst 72713.178295                       # average overall mshr miss latency
system.l2.demand_avg_mshr_miss_latency::.switch_cpus.data 69296.610169                       # average overall mshr miss latency
system.l2.demand_avg_mshr_miss_latency::total 69458.348624                       # average overall mshr miss latency
system.l2.overall_avg_mshr_miss_latency::.switch_cpus.inst 72713.178295                       # average overall mshr miss latency
system.l2.overall_avg_mshr_miss_latency::.switch_cpus.data 69296.610169                       # average overall mshr miss latency
system.l2.overall_avg_mshr_miss_latency::total 69458.348624                       # average overall mshr miss latency
system.l2.replacements                             64                       # number of replacements
system.l2.WritebackDirty_hits::.writebacks        19006                       # number of WritebackDirty hits
system.l2.WritebackDirty_hits::total            19006                       # number of WritebackDirty hits
system.l2.WritebackDirty_accesses::.writebacks        19006                       # number of WritebackDirty accesses(hits+misses)
system.l2.WritebackDirty_accesses::total        19006                       # number of WritebackDirty accesses(hits+misses)
system.l2.WritebackClean_hits::.writebacks          249                       # number of WritebackClean hits
system.l2.WritebackClean_hits::total              249                       # number of WritebackClean hits
system.l2.WritebackClean_accesses::.writebacks          249                       # number of WritebackClean accesses(hits+misses)
system.l2.WritebackClean_accesses::total          249                       # number of WritebackClean accesses(hits+misses)
system.l2.CleanEvict_mshr_misses::.writebacks            2                       # number of CleanEvict MSHR misses
system.l2.CleanEvict_mshr_misses::total             2                       # number of CleanEvict MSHR misses
system.l2.CleanEvict_mshr_miss_rate::.writebacks          inf                       # mshr miss rate for CleanEvict accesses
system.l2.CleanEvict_mshr_miss_rate::total          inf                       # mshr miss rate for CleanEvict accesses
system.l2.ReadExReq_hits::.switch_cpus.data        17270                       # number of ReadExReq hits
system.l2.ReadExReq_hits::total                 17270                       # number of ReadExReq hits
system.l2.ReadExReq_misses::.cpu.data               1                       # number of ReadExReq misses
system.l2.ReadExReq_misses::.switch_cpus.data         2061                       # number of ReadExReq misses
system.l2.ReadExReq_misses::total                2062                       # number of ReadExReq misses
system.l2.ReadExReq_miss_latency::.switch_cpus.data    159862000                       # number of ReadExReq miss cycles
system.l2.ReadExReq_miss_latency::total     159862000                       # number of ReadExReq miss cycles
system.l2.ReadExReq_accesses::.cpu.data             1                       # number of ReadExReq accesses(hits+misses)
system.l2.ReadExReq_accesses::.switch_cpus.data        19331                       # number of ReadExReq accesses(hits+misses)
system.l2.ReadExReq_accesses::total             19332                       # number of ReadExReq accesses(hits+misses)
system.l2.ReadExReq_miss_rate::.cpu.data            1                       # miss rate for ReadExReq accesses
system.l2.ReadExReq_miss_rate::.switch_cpus.data     0.106616                       # miss rate for ReadExReq accesses
system.l2.ReadExReq_miss_rate::total         0.106663                       # miss rate for ReadExReq accesses
system.l2.ReadExReq_avg_miss_latency::.switch_cpus.data 77565.259583                       # average ReadExReq miss latency
system.l2.ReadExReq_avg_miss_latency::total 77527.643065                       # average ReadExReq miss latency
system.l2.ReadExReq_mshr_misses::.switch_cpus.data         2061                       # number of ReadExReq MSHR misses
system.l2.ReadExReq_mshr_misses::total           2061                       # number of ReadExReq MSHR misses
system.l2.ReadExReq_mshr_miss_latency::.switch_cpus.data    139252000                       # number of ReadExReq MSHR miss cycles
system.l2.ReadExReq_mshr_miss_latency::total    139252000                       # number of ReadExReq MSHR miss cycles
system.l2.ReadExReq_mshr_miss_rate::.switch_cpus.data     0.106616                       # mshr miss rate for ReadExReq accesses
system.l2.ReadExReq_mshr_miss_rate::total     0.106611                       # mshr miss rate for ReadExReq accesses
system.l2.ReadExReq_avg_mshr_miss_latency::.switch_cpus.data 67565.259583                       # average ReadExReq mshr miss latency
system.l2.ReadExReq_avg_mshr_miss_latency::total 67565.259583                       # average ReadExReq mshr miss latency
system.l2.ReadCleanReq_hits::.switch_cpus.inst          244                       # number of ReadCleanReq hits
system.l2.ReadCleanReq_hits::total                244                       # number of ReadCleanReq hits
system.l2.ReadCleanReq_misses::.cpu.inst            1                       # number of ReadCleanReq misses
system.l2.ReadCleanReq_misses::.switch_cpus.inst          129                       # number of ReadCleanReq misses
system.l2.ReadCleanReq_misses::total              130                       # number of ReadCleanReq misses
system.l2.ReadCleanReq_miss_latency::.switch_cpus.inst     10670000                       # number of ReadCleanReq miss cycles
system.l2.ReadCleanReq_miss_latency::total     10670000                       # number of ReadCleanReq miss cycles
system.l2.ReadCleanReq_accesses::.cpu.inst            1                       # number of ReadCleanReq accesses(hits+misses)
system.l2.ReadCleanReq_accesses::.switch_cpus.inst          373                       # number of ReadCleanReq accesses(hits+misses)
system.l2.ReadCleanReq_accesses::total            374                       # number of ReadCleanReq accesses(hits+misses)
system.l2.ReadCleanReq_miss_rate::.cpu.inst            1                       # miss rate for ReadCleanReq accesses
system.l2.ReadCleanReq_miss_rate::.switch_cpus.inst     0.345845                       # miss rate for ReadCleanReq accesses
[...]
system.cpu.itb_walker_cache.blocked_cycles::no_targets            0                       # number of cycles access was blocked
system.cpu.itb_walker_cache.blocked::no_mshrs            0                       # number of cycles access was blocked
system.cpu.itb_walker_cache.blocked::no_targets            0                       # number of cycles access was blocked
system.cpu.itb_walker_cache.avg_blocked_cycles::no_mshrs          nan                       # average number of cycles each access was blocked
system.cpu.itb_walker_cache.avg_blocked_cycles::no_targets          nan                       # average number of cycles each access was blocked
system.cpu.itb_walker_cache.replacements            0                       # number of replacements
system.cpu.itb_walker_cache.tags.pwrStateResidencyTicks::UNDEFINED 81947114100500                       # Cumulative time (in ticks) in various power states
system.cpu.itb_walker_cache.tags.tagsinuse            0                       # Cycle average of tags in use
system.cpu.itb_walker_cache.tags.total_refs            0                       # Total number of references to valid blocks.
system.cpu.itb_walker_cache.tags.sampled_refs            0                       # Sample count of references to valid blocks.
system.cpu.itb_walker_cache.tags.avg_refs          nan                       # Average number of references to valid blocks.
system.cpu.itb_walker_cache.tags.warmup_cycle            0                       # Cycle when the warmup percentage was hit.
system.cpu.itb_walker_cache.tags.tag_accesses            0                       # Number of tag accesses
system.cpu.itb_walker_cache.tags.data_accesses            0                       # Number of data accesses
system.cpu.itb.walker.pwrStateResidencyTicks::UNDEFINED 81947114100500                       # Cumulative time (in ticks) in various power states
system.cpu.dtb_walker_cache.pwrStateResidencyTicks::UNDEFINED 81947114100500                       # Cumulative time (in ticks) in various power states
system.cpu.dtb_walker_cache.blocked_cycles::no_mshrs            0                       # number of cycles access was blocked
system.cpu.dtb_walker_cache.blocked_cycles::no_targets            0                       # number of cycles access was blocked
system.cpu.dtb_walker_cache.blocked::no_mshrs            0                       # number of cycles access was blocked
system.cpu.dtb_walker_cache.blocked::no_targets            0                       # number of cycles access was blocked
system.cpu.dtb_walker_cache.avg_blocked_cycles::no_mshrs          nan                       # average number of cycles each access was blocked
system.cpu.dtb_walker_cache.avg_blocked_cycles::no_targets          nan                       # average number of cycles each access was blocked
system.cpu.dtb_walker_cache.replacements            0                       # number of replacements
system.cpu.dtb_walker_cache.tags.pwrStateResidencyTicks::UNDEFINED 81947114100500                       # Cumulative time (in ticks) in various power states
system.cpu.dtb_walker_cache.tags.tagsinuse            0                       # Cycle average of tags in use
system.cpu.dtb_walker_cache.tags.total_refs            0                       # Total number of references to valid blocks.
system.cpu.dtb_walker_cache.tags.sampled_refs            0                       # Sample count of references to valid blocks.
system.cpu.dtb_walker_cache.tags.avg_refs          nan                       # Average number of references to valid blocks.
system.cpu.dtb_walker_cache.tags.warmup_cycle            0                       # Cycle when the warmup percentage was hit.
system.cpu.dtb_walker_cache.tags.tag_accesses            0                       # Number of tag accesses
system.cpu.dtb_walker_cache.tags.data_accesses            0                       # Number of data accesses
system.cpu.dcache.pwrStateResidencyTicks::UNDEFINED 81947114100500                       # Cumulative time (in ticks) in various power states
system.cpu.dcache.demand_hits::.cpu.data            1                       # number of demand (read+write) hits
system.cpu.dcache.demand_hits::.switch_cpus.data     18666348                       # number of demand (read+write) hits
system.cpu.dcache.demand_hits::total         18666349                       # number of demand (read+write) hits
system.cpu.dcache.overall_hits::.cpu.data            1                       # number of overall hits
system.cpu.dcache.overall_hits::.switch_cpus.data     18666348                       # number of overall hits
system.cpu.dcache.overall_hits::total        18666349                       # number of overall hits
system.cpu.dcache.demand_misses::.cpu.data            6                       # number of demand (read+write) misses
system.cpu.dcache.demand_misses::.switch_cpus.data       108582                       # number of demand (read+write) misses
system.cpu.dcache.demand_misses::total         108588                       # number of demand (read+write) misses
system.cpu.dcache.overall_misses::.cpu.data            6                       # number of overall misses
system.cpu.dcache.overall_misses::.switch_cpus.data       108582                       # number of overall misses
system.cpu.dcache.overall_misses::total        108588                       # number of overall misses
system.cpu.dcache.demand_miss_latency::.switch_cpus.data   1654174987                       # number of demand (read+write) miss cycles
system.cpu.dcache.demand_miss_latency::total   1654174987                       # number of demand (read+write) miss cycles
system.cpu.dcache.overall_miss_latency::.switch_cpus.data   1654174987                       # number of overall miss cycles
system.cpu.dcache.overall_miss_latency::total   1654174987                       # number of overall miss cycles
system.cpu.dcache.demand_accesses::.cpu.data            7                       # number of demand (read+write) accesses
system.cpu.dcache.demand_accesses::.switch_cpus.data     18774930                       # number of demand (read+write) accesses
system.cpu.dcache.demand_accesses::total     18774937                       # number of demand (read+write) accesses
system.cpu.dcache.overall_accesses::.cpu.data            7                       # number of overall (read+write) accesses
system.cpu.dcache.overall_accesses::.switch_cpus.data     18774930                       # number of overall (read+write) accesses
system.cpu.dcache.overall_accesses::total     18774937                       # number of overall (read+write) accesses
system.cpu.dcache.demand_miss_rate::.cpu.data     0.857143                       # miss rate for demand accesses
system.cpu.dcache.demand_miss_rate::.switch_cpus.data     0.005783                       # miss rate for demand accesses
system.cpu.dcache.demand_miss_rate::total     0.005784                       # miss rate for demand accesses
system.cpu.dcache.overall_miss_rate::.cpu.data     0.857143                       # miss rate for overall accesses
system.cpu.dcache.overall_miss_rate::.switch_cpus.data     0.005783                       # miss rate for overall accesses
system.cpu.dcache.overall_miss_rate::total     0.005784                       # miss rate for overall accesses
system.cpu.dcache.demand_avg_miss_latency::.switch_cpus.data 15234.338905                       # average overall miss latency
system.cpu.dcache.demand_avg_miss_latency::total 15233.497136                       # average overall miss latency
system.cpu.dcache.overall_avg_miss_latency::.switch_cpus.data 15234.338905                       # average overall miss latency
system.cpu.dcache.overall_avg_miss_latency::total 15233.497136                       # average overall miss latency
system.cpu.dcache.blocked_cycles::no_mshrs         7499                       # number of cycles access was blocked
system.cpu.dcache.blocked_cycles::no_targets          118                       # number of cycles access was blocked
system.cpu.dcache.blocked::no_mshrs               675                       # number of cycles access was blocked
system.cpu.dcache.blocked::no_targets               1                       # number of cycles access was blocked
system.cpu.dcache.avg_blocked_cycles::no_mshrs    11.109630                       # average number of cycles each access was blocked
system.cpu.dcache.avg_blocked_cycles::no_targets          118                       # average number of cycles each access was blocked
system.cpu.dcache.writebacks::.writebacks        81573                       # number of writebacks
system.cpu.dcache.writebacks::total             81573                       # number of writebacks
system.cpu.dcache.demand_mshr_hits::.switch_cpus.data         3718                       # number of demand (read+write) MSHR hits
system.cpu.dcache.demand_mshr_hits::total         3718                       # number of demand (read+write) MSHR hits
system.cpu.dcache.overall_mshr_hits::.switch_cpus.data         3718                       # number of overall MSHR hits
system.cpu.dcache.overall_mshr_hits::total         3718                       # number of overall MSHR hits
system.cpu.dcache.demand_mshr_misses::.switch_cpus.data       104864                       # number of demand (read+write) MSHR misses
system.cpu.dcache.demand_mshr_misses::total       104864                       # number of demand (read+write) MSHR misses
system.cpu.dcache.overall_mshr_misses::.switch_cpus.data       104864                       # number of overall MSHR misses
system.cpu.dcache.overall_mshr_misses::total       104864                       # number of overall MSHR misses
system.cpu.dcache.demand_mshr_miss_latency::.switch_cpus.data   1504634987                       # number of demand (read+write) MSHR miss cycles
system.cpu.dcache.demand_mshr_miss_latency::total   1504634987                       # number of demand (read+write) MSHR miss cycles
system.cpu.dcache.overall_mshr_miss_latency::.switch_cpus.data   1504634987                       # number of overall MSHR miss cycles
system.cpu.dcache.overall_mshr_miss_latency::total   1504634987                       # number of overall MSHR miss cycles
system.cpu.dcache.demand_mshr_miss_rate::.switch_cpus.data     0.005585                       # mshr miss rate for demand accesses
system.cpu.dcache.demand_mshr_miss_rate::total     0.005585                       # mshr miss rate for demand accesses
system.cpu.dcache.overall_mshr_miss_rate::.switch_cpus.data     0.005585                       # mshr miss rate for overall accesses
system.cpu.dcache.overall_mshr_miss_rate::total     0.005585                       # mshr miss rate for overall accesses
system.cpu.dcache.demand_avg_mshr_miss_latency::.switch_cpus.data 14348.441667                       # average overall mshr miss latency
system.cpu.dcache.demand_avg_mshr_miss_latency::total 14348.441667                       # average overall mshr miss latency
system.cpu.dcache.overall_avg_mshr_miss_latency::.switch_cpus.data 14348.441667                       # average overall mshr miss latency
system.cpu.dcache.overall_avg_mshr_miss_latency::total 14348.441667                       # average overall mshr miss latency
system.cpu.dcache.replacements                 103846                       # number of replacements
system.cpu.dcache.ReadReq_hits::.switch_cpus.data     13156550                       # number of ReadReq hits
system.cpu.dcache.ReadReq_hits::total        13156550                       # number of ReadReq hits
system.cpu.dcache.ReadReq_misses::.cpu.data            5                       # number of ReadReq misses
system.cpu.dcache.ReadReq_misses::.switch_cpus.data        28291                       # number of ReadReq misses
system.cpu.dcache.ReadReq_misses::total         28296                       # number of ReadReq misses
system.cpu.dcache.ReadReq_miss_latency::.switch_cpus.data    423643000                       # number of ReadReq miss cycles
system.cpu.dcache.ReadReq_miss_latency::total    423643000                       # number of ReadReq miss cycles
system.cpu.dcache.ReadReq_accesses::.cpu.data            5                       # number of ReadReq accesses(hits+misses)
system.cpu.dcache.ReadReq_accesses::.switch_cpus.data     13184841                       # number of ReadReq accesses(hits+misses)
system.cpu.dcache.ReadReq_accesses::total     13184846                       # number of ReadReq accesses(hits+misses)
system.cpu.dcache.ReadReq_miss_rate::.cpu.data            1                       # miss rate for ReadReq accesses
system.cpu.dcache.ReadReq_miss_rate::.switch_cpus.data     0.002146                       # miss rate for ReadReq accesses
system.cpu.dcache.ReadReq_miss_rate::total     0.002146                       # miss rate for ReadReq accesses
system.cpu.dcache.ReadReq_avg_miss_latency::.switch_cpus.data 14974.479516                       # average ReadReq miss latency
system.cpu.dcache.ReadReq_avg_miss_latency::total 14971.833475                       # average ReadReq miss latency
system.cpu.dcache.ReadReq_mshr_hits::.switch_cpus.data         3717                       # number of ReadReq MSHR hits
system.cpu.dcache.ReadReq_mshr_hits::total         3717                       # number of ReadReq MSHR hits
system.cpu.dcache.ReadReq_mshr_misses::.switch_cpus.data        24574                       # number of ReadReq MSHR misses
system.cpu.dcache.ReadReq_mshr_misses::total        24574                       # number of ReadReq MSHR misses
system.cpu.dcache.ReadReq_mshr_miss_latency::.switch_cpus.data    354430500                       # number of ReadReq MSHR miss cycles
system.cpu.dcache.ReadReq_mshr_miss_latency::total    354430500                       # number of ReadReq MSHR miss cycles
system.cpu.dcache.ReadReq_mshr_miss_rate::.switch_cpus.data     0.001864                       # mshr miss rate for ReadReq accesses
system.cpu.dcache.ReadReq_mshr_miss_rate::total     0.001864                       # mshr miss rate for ReadReq accesses
system.cpu.dcache.ReadReq_avg_mshr_miss_latency::.switch_cpus.data 14422.987711                       # average ReadReq mshr miss latency
system.cpu.dcache.ReadReq_avg_mshr_miss_latency::total 14422.987711                       # average ReadReq mshr miss latency
system.cpu.dcache.WriteReq_hits::.cpu.data            1                       # number of WriteReq hits
system.cpu.dcache.WriteReq_hits::.switch_cpus.data      5509798                       # number of WriteReq hits
system.cpu.dcache.WriteReq_hits::total        5509799                       # number of WriteReq hits
system.cpu.dcache.WriteReq_misses::.cpu.data            1                       # number of WriteReq misses
system.cpu.dcache.WriteReq_misses::.switch_cpus.data        80291                       # number of WriteReq misses
system.cpu.dcache.WriteReq_misses::total        80292                       # number of WriteReq misses
system.cpu.dcache.WriteReq_miss_latency::.switch_cpus.data   1230531987                       # number of WriteReq miss cycles
system.cpu.dcache.WriteReq_miss_latency::total   1230531987                       # number of WriteReq miss cycles
system.cpu.dcache.WriteReq_accesses::.cpu.data            2                       # number of WriteReq accesses(hits+misses)
system.cpu.dcache.WriteReq_accesses::.switch_cpus.data      5590089                       # number of WriteReq accesses(hits+misses)
system.cpu.dcache.WriteReq_accesses::total      5590091                       # number of WriteReq accesses(hits+misses)
system.cpu.dcache.WriteReq_miss_rate::.cpu.data     0.500000                       # miss rate for WriteReq accesses
system.cpu.dcache.WriteReq_miss_rate::.switch_cpus.data     0.014363                       # miss rate for WriteReq accesses
system.cpu.dcache.WriteReq_miss_rate::total     0.014363                       # miss rate for WriteReq accesses
system.cpu.dcache.WriteReq_avg_miss_latency::.switch_cpus.data 15325.901869                       # average WriteReq miss latency
system.cpu.dcache.WriteReq_avg_miss_latency::total 15325.710992                       # average WriteReq miss latency
system.cpu.dcache.WriteReq_mshr_hits::.switch_cpus.data            1                       # number of WriteReq MSHR hits
system.cpu.dcache.WriteReq_mshr_hits::total            1                       # number of WriteReq MSHR hits
system.cpu.dcache.WriteReq_mshr_misses::.switch_cpus.data        80290                       # number of WriteReq MSHR misses
system.cpu.dcache.WriteReq_mshr_misses::total        80290                       # number of WriteReq MSHR misses
system.cpu.dcache.WriteReq_mshr_miss_latency::.switch_cpus.data   1150204487                       # number of WriteReq MSHR miss cycles
system.cpu.dcache.WriteReq_mshr_miss_latency::total   1150204487                       # number of WriteReq MSHR miss cycles
system.cpu.dcache.WriteReq_mshr_miss_rate::.switch_cpus.data     0.014363                       # mshr miss rate for WriteReq accesses
system.cpu.dcache.WriteReq_mshr_miss_rate::total     0.014363                       # mshr miss rate for WriteReq accesses
system.cpu.dcache.WriteReq_avg_mshr_miss_latency::.switch_cpus.data 14325.625694                       # average WriteReq mshr miss latency
system.cpu.dcache.WriteReq_avg_mshr_miss_latency::total 14325.625694                       # average WriteReq mshr miss latency
system.cpu.dcache.tags.pwrStateResidencyTicks::UNDEFINED 81947114100500                       # Cumulative time (in ticks) in various power states
system.cpu.dcache.tags.tagsinuse             0.124240                       # Cycle average of tags in use
system.cpu.dcache.tags.total_refs            18771219                       # Total number of references to valid blocks.
system.cpu.dcache.tags.sampled_refs            104870                       # Sample count of references to valid blocks.
system.cpu.dcache.tags.avg_refs            178.995127                       # Average number of references to valid blocks.
system.cpu.dcache.tags.warmup_cycle      81937068258000                       # Cycle when the warmup percentage was hit.
system.cpu.dcache.tags.occ_blocks::.cpu.data     0.000372                       # Average occupied blocks per requestor
system.cpu.dcache.tags.occ_blocks::.switch_cpus.data     0.123869                       # Average occupied blocks per requestor
system.cpu.dcache.tags.occ_percent::.cpu.data     0.000000                       # Average percentage of cache occupancy
system.cpu.dcache.tags.occ_percent::.switch_cpus.data     0.000121                       # Average percentage of cache occupancy
system.cpu.dcache.tags.occ_percent::total     0.000121                       # Average percentage of cache occupancy
system.cpu.dcache.tags.occ_task_id_blocks::1024         1024                       # Occupied blocks per task id
system.cpu.dcache.tags.age_task_id_blocks_1024::0           53                       # Occupied blocks per task id
system.cpu.dcache.tags.age_task_id_blocks_1024::1          595                       # Occupied blocks per task id
system.cpu.dcache.tags.age_task_id_blocks_1024::2          337                       # Occupied blocks per task id
system.cpu.dcache.tags.age_task_id_blocks_1024::3           14                       # Occupied blocks per task id
system.cpu.dcache.tags.age_task_id_blocks_1024::4           25                       # Occupied blocks per task id
system.cpu.dcache.tags.occ_task_id_percent::1024            1                       # Percentage of cache occupancy per task id
system.cpu.dcache.tags.tag_accesses          37654744                       # Number of tag accesses
system.cpu.dcache.tags.data_accesses         37654744                       # Number of data accesses

---------- End Simulation Statistics   ----------
