
---------- Begin Simulation Statistics ----------
final_tick                               371668252537000                       # Number of ticks from beginning of simulation (restored from checkpoints and never reset)
host_inst_rate                                  50399                       # Simulator instruction rate (inst/s)
host_mem_usage                                 899736                       # Number of bytes of host memory used
host_op_rate                                   112765                       # Simulator op (including micro ops) rate (op/s)
host_seconds                                   198.42                       # Real time elapsed on the host
host_tick_rate                               36073586                       # Simulator tick rate (ticks/s)
sim_freq                                 1000000000000                       # Frequency of simulated ticks
sim_insts                                    10000006                       # Number of instructions simulated
sim_ops                                      22374673                       # Number of ops (including micro ops) simulated
sim_seconds                                  0.007158                       # Number of seconds simulated
sim_ticks                                  7157654500                       # Number of ticks simulated
system.cpu.committedInsts                           5                       # Number of instructions committed
system.cpu.committedOps                            17                       # Number of ops (including micro ops) committed
system.cpu.dtb.rdAccesses                           8                       # TLB accesses on read requests
system.cpu.dtb.rdMisses                             0                       # TLB misses on read requests
system.cpu.dtb.wrAccesses                           0                       # TLB accesses on write requests
system.cpu.dtb.wrMisses                             0                       # TLB misses on write requests
system.cpu.idle_fraction                            0                       # Percentage of idle cycles
system.cpu.itb.rdAccesses                           0                       # TLB accesses on read requests
system.cpu.itb.rdMisses                             0                       # TLB misses on read requests
system.cpu.itb.wrAccesses                          10                       # TLB accesses on write requests
system.cpu.itb.wrMisses                             0                       # TLB misses on write requests
system.cpu.not_idle_fraction                        1                       # Percentage of non-idle cycles
system.cpu.numCycles                               22                       # number of cpu cycles simulated
system.cpu.numWorkItemsCompleted                    0                       # number of work items this cpu completed
system.cpu.numWorkItemsStarted                      0                       # number of work items this cpu started
system.cpu.num_busy_cycles                         22                       # Number of busy cycles
system.cpu.num_conditional_control_insts            0                       # number of instructions that are conditional controls
system.cpu.num_fp_alu_accesses                     16                       # Number of float alu accesses
system.cpu.num_fp_insts                            16                       # number of float instructions
system.cpu.num_fp_register_reads                   24                       # number of times the floating registers were read
system.cpu.num_fp_register_writes                  16                       # number of times the floating registers were written
system.cpu.num_func_calls                           0                       # number of times a function call or return occured
system.cpu.num_idle_cycles                          0                       # Number of idle cycles
system.cpu.num_int_alu_accesses                     9                       # Number of integer alu accesses
system.cpu.num_int_insts                            9                       # number of integer instructions
system.cpu.num_int_register_reads                  25                       # number of times the integer registers were read
system.cpu.num_int_register_writes                  1                       # number of times the integer registers were written
system.cpu.num_load_insts                           8                       # Number of load instructions
system.cpu.num_mem_refs                             8                       # number of memory refs
system.cpu.num_store_insts                          0                       # Number of store instructions
system.cpu.num_vec_alu_accesses                     0                       # Number of vector alu accesses
system.cpu.num_vec_insts                            0                       # number of vector instructions
system.cpu.num_vec_register_reads                   0                       # number of times the vector registers were read
system.cpu.num_vec_register_writes                  0                       # number of times the vector registers were written
system.cpu.op_class::No_OpClass                     0      0.00%      0.00% # Class of executed instruction
system.cpu.op_class::IntAlu                         1      5.88%      5.88% # Class of executed instruction
system.cpu.op_class::IntMult                        0      0.00%      5.88% # Class of executed instruction
system.cpu.op_class::IntDiv                         0      0.00%      5.88% # Class of executed instruction
system.cpu.op_class::FloatAdd                       0      0.00%      5.88% # Class of executed instruction
system.cpu.op_class::FloatCmp                       0      0.00%      5.88% # Class of executed instruction
system.cpu.op_class::FloatCvt                       0      0.00%      5.88% # Class of executed instruction
system.cpu.op_class::FloatMult                      0      0.00%      5.88% # Class of executed instruction
system.cpu.op_class::FloatMultAcc                   0      0.00%      5.88% # Class of executed instruction
system.cpu.op_class::FloatDiv                       0      0.00%      5.88% # Class of executed instruction
system.cpu.op_class::FloatMisc                      0      0.00%      5.88% # Class of executed instruction
system.cpu.op_class::FloatSqrt                      0      0.00%      5.88% # Class of executed instruction
system.cpu.op_class::SimdAdd                        0      0.00%      5.88% # Class of executed instruction
system.cpu.op_class::SimdAddAcc                     0      0.00%      5.88% # Class of executed instruction
system.cpu.op_class::SimdAlu                        0      0.00%      5.88% # Class of executed instruction
system.cpu.op_class::SimdCmp                        0      0.00%      5.88% # Class of executed instruction
system.cpu.op_class::SimdCvt                        0      0.00%      5.88% # Class of executed instruction
system.cpu.op_class::SimdMisc                       0      0.00%      5.88% # Class of executed instruction
system.cpu.op_class::SimdMult                       0      0.00%      5.88% # Class of executed instruction
system.cpu.op_class::SimdMultAcc                    0      0.00%      5.88% # Class of executed instruction
system.cpu.op_class::SimdShift                      0      0.00%      5.88% # Class of executed instruction
system.cpu.op_class::SimdShiftAcc                   0      0.00%      5.88% # Class of executed instruction
system.cpu.op_class::SimdDiv                        0      0.00%      5.88% # Class of executed instruction
system.cpu.op_class::SimdSqrt                       0      0.00%      5.88% # Class of executed instruction
system.cpu.op_class::SimdFloatAdd                   4     23.53%     29.41% # Class of executed instruction
system.cpu.op_class::SimdFloatAlu                   0      0.00%     29.41% # Class of executed instruction
system.cpu.op_class::SimdFloatCmp                   0      0.00%     29.41% # Class of executed instruction
system.cpu.op_class::SimdFloatCvt                   0      0.00%     29.41% # Class of executed instruction
system.cpu.op_class::SimdFloatDiv                   0      0.00%     29.41% # Class of executed instruction
system.cpu.op_class::SimdFloatMisc                  0      0.00%     29.41% # Class of executed instruction
system.cpu.op_class::SimdFloatMult                  4     23.53%     52.94% # Class of executed instruction
system.cpu.op_class::SimdFloatMultAcc               0      0.00%     52.94% # Class of executed instruction
system.cpu.op_class::SimdFloatSqrt                  0      0.00%     52.94% # Class of executed instruction
system.cpu.op_class::SimdReduceAdd                  0      0.00%     52.94% # Class of executed instruction
system.cpu.op_class::SimdReduceAlu                  0      0.00%     52.94% # Class of executed instruction
system.cpu.op_class::SimdReduceCmp                  0      0.00%     52.94% # Class of executed instruction
system.cpu.op_class::SimdFloatReduceAdd             0      0.00%     52.94% # Class of executed instruction
system.cpu.op_class::SimdFloatReduceCmp             0      0.00%     52.94% # Class of executed instruction
system.cpu.op_class::SimdAes                        0      0.00%     52.94% # Class of executed instruction
system.cpu.op_class::SimdAesMix                     0      0.00%     52.94% # Class of executed instruction
system.cpu.op_class::SimdSha1Hash                   0      0.00%     52.94% # Class of executed instruction
system.cpu.op_class::SimdSha1Hash2                  0      0.00%     52.94% # Class of executed instruction
system.cpu.op_class::SimdSha256Hash                 0      0.00%     52.94% # Class of executed instruction
system.cpu.op_class::SimdSha256Hash2                0      0.00%     52.94% # Class of executed instruction
system.cpu.op_class::SimdShaSigma2                  0      0.00%     52.94% # Class of executed instruction
system.cpu.op_class::SimdShaSigma3                  0      0.00%     52.94% # Class of executed instruction
system.cpu.op_class::SimdPredAlu                    0      0.00%     52.94% # Class of executed instruction
system.cpu.op_class::MemRead                        0      0.00%     52.94% # Class of executed instruction
system.cpu.op_class::MemWrite                       0      0.00%     52.94% # Class of executed instruction
system.cpu.op_class::FloatMemRead                   8     47.06%    100.00% # Class of executed instruction
system.cpu.op_class::FloatMemWrite                  0      0.00%    100.00% # Class of executed instruction
system.cpu.op_class::IprAccess                      0      0.00%    100.00% # Class of executed instruction
system.cpu.op_class::InstPrefetch                   0      0.00%    100.00% # Class of executed instruction
system.cpu.op_class::total                         17                       # Class of executed instruction
system.cpu.workload.numSyscalls                     5                       # Number of system calls
system.membus.snoop_filter.hit_multi_requests            0                       # Number of requests hitting in the snoop filter with multiple (>1) holders of the requested data.
system.membus.snoop_filter.hit_multi_snoops            0                       # Number of snoops hitting in the snoop filter with multiple (>1) holders of the requested data.
system.membus.snoop_filter.hit_single_requests        70404                       # Number of requests hitting in the snoop filter with a single holder of the requested data.
system.membus.snoop_filter.hit_single_snoops            0                       # Number of snoops hitting in the snoop filter with a single holder of the requested data.
system.membus.snoop_filter.tot_requests        149514                       # Total number of requests made to the snoop filter.
system.membus.snoop_filter.tot_snoops               0                       # Total number of snoops made to the snoop filter.
system.switch_cpus.branchPred.BTBCorrect            0                       # Number of correct BTB predictions (this stat may not work properly.
system.switch_cpus.branchPred.BTBHitPct      0.000000                       # BTB Hit Percentage
system.switch_cpus.branchPred.BTBHits               0                       # Number of BTB hits
system.switch_cpus.branchPred.BTBLookups       130429                       # Number of BTB lookups
system.switch_cpus.branchPred.RASInCorrect           31                       # Number of incorrect RAS predictions.
system.switch_cpus.branchPred.condIncorrect         7155                       # Number of conditional branches incorrect
system.switch_cpus.branchPred.condPredicted       149807                       # Number of conditional branches predicted
system.switch_cpus.branchPred.indirectHits        69912                       # Number of indirect target hits.
system.switch_cpus.branchPred.indirectLookups       130429                       # Number of indirect predictor lookups.
system.switch_cpus.branchPred.indirectMisses        60517                       # Number of indirect misses.
system.switch_cpus.branchPred.lookups          182496                       # Number of BP lookups
system.switch_cpus.branchPred.usedRAS           18647                       # Number of times the RAS was used to get a target.
system.switch_cpus.branchPredindirectMispredicted         4566                       # Number of mispredicted indirect branches.
system.switch_cpus.cc_regfile_reads            720510                       # number of cc regfile reads
system.switch_cpus.cc_regfile_writes           613042                       # number of cc regfile writes
system.switch_cpus.commit.amos                      0                       # Number of atomic instructions committed
system.switch_cpus.commit.branchMispredicts         7324                       # The number of times a branch was mispredicted
system.switch_cpus.commit.branches             106288                       # Number of branches committed
system.switch_cpus.commit.bw_lim_events       1487222                       # number cycles where commit BW limit reached
system.switch_cpus.commit.commitNonSpecStalls          405                       # The number of times commit has been forced to stall to communicate backwards
system.switch_cpus.commit.commitSquashedInsts       806279                       # The number of squashed insts skipped by commit
system.switch_cpus.commit.committedInsts     10000001                       # Number of instructions committed
system.switch_cpus.commit.committedOps       22374656                       # Number of ops (including micro ops) committed
system.switch_cpus.commit.committed_per_cycle::samples     14087288                       # Number of insts commited each cycle
system.switch_cpus.commit.committed_per_cycle::mean     1.588287                       # Number of insts commited each cycle
system.switch_cpus.commit.committed_per_cycle::stdev     2.722388                       # Number of insts commited each cycle
system.switch_cpus.commit.committed_per_cycle::underflows            0      0.00%      0.00% # Number of insts commited each cycle
system.switch_cpus.commit.committed_per_cycle::0      9269428     65.80%     65.80% # Number of insts commited each cycle
system.switch_cpus.commit.committed_per_cycle::1       782516      5.55%     71.35% # Number of insts commited each cycle
system.switch_cpus.commit.committed_per_cycle::2       870680      6.18%     77.54% # Number of insts commited each cycle
system.switch_cpus.commit.committed_per_cycle::3       303085      2.15%     79.69% # Number of insts commited each cycle
system.switch_cpus.commit.committed_per_cycle::4       561573      3.99%     83.67% # Number of insts commited each cycle
system.switch_cpus.commit.committed_per_cycle::5       276708      1.96%     85.64% # Number of insts commited each cycle
system.switch_cpus.commit.committed_per_cycle::6       338615      2.40%     88.04% # Number of insts commited each cycle
system.switch_cpus.commit.committed_per_cycle::7       197461      1.40%     89.44% # Number of insts commited each cycle
system.switch_cpus.commit.committed_per_cycle::8      1487222     10.56%    100.00% # Number of insts commited each cycle
system.switch_cpus.commit.committed_per_cycle::overflows            0      0.00%    100.00% # Number of insts commited each cycle
system.switch_cpus.commit.committed_per_cycle::min_value            0                       # Number of insts commited each cycle
system.switch_cpus.commit.committed_per_cycle::max_value            8                       # Number of insts commited each cycle
system.switch_cpus.commit.committed_per_cycle::total     14087288                       # Number of insts commited each cycle
system.switch_cpus.commit.fp_insts           20559192                       # Number of committed floating point instructions.
system.switch_cpus.commit.function_calls         8242                       # Number of function calls committed.
system.switch_cpus.commit.int_insts          10716167                       # Number of committed integer instructions.
system.switch_cpus.commit.loads               7506752                       # Number of loads committed
system.switch_cpus.commit.membars                   0                       # Number of memory barriers committed
system.switch_cpus.commit.op_class_0::No_OpClass         3248      0.01%      0.01% # Class of committed instruction
system.switch_cpus.commit.op_class_0::IntAlu      3440241     15.38%     15.39% # Class of committed instruction
system.switch_cpus.commit.op_class_0::IntMult          647      0.00%     15.39% # Class of committed instruction
system.switch_cpus.commit.op_class_0::IntDiv          133      0.00%     15.39% # Class of committed instruction
system.switch_cpus.commit.op_class_0::FloatAdd          604      0.00%     15.40% # Class of committed instruction
system.switch_cpus.commit.op_class_0::FloatCmp            0      0.00%     15.40% # Class of committed instruction
system.switch_cpus.commit.op_class_0::FloatCvt            0      0.00%     15.40% # Class of committed instruction
system.switch_cpus.commit.op_class_0::FloatMult            0      0.00%     15.40% # Class of committed instruction
system.switch_cpus.commit.op_class_0::FloatMultAcc            0      0.00%     15.40% # Class of committed instruction
system.switch_cpus.commit.op_class_0::FloatDiv            0      0.00%     15.40% # Class of committed instruction
system.switch_cpus.commit.op_class_0::FloatMisc            0      0.00%     15.40% # Class of committed instruction
system.switch_cpus.commit.op_class_0::FloatSqrt            0      0.00%     15.40% # Class of committed instruction
system.switch_cpus.commit.op_class_0::SimdAdd          746      0.00%     15.40% # Class of committed instruction
system.switch_cpus.commit.op_class_0::SimdAddAcc            0      0.00%     15.40% # Class of committed instruction
system.switch_cpus.commit.op_class_0::SimdAlu        55789      0.25%     15.65% # Class of committed instruction
system.switch_cpus.commit.op_class_0::SimdCmp            0      0.00%     15.65% # Class of committed instruction
system.switch_cpus.commit.op_class_0::SimdCvt         4810      0.02%     15.67% # Class of committed instruction
system.switch_cpus.commit.op_class_0::SimdMisc         4991      0.02%     15.69% # Class of committed instruction
system.switch_cpus.commit.op_class_0::SimdMult            0      0.00%     15.69% # Class of committed instruction
system.switch_cpus.commit.op_class_0::SimdMultAcc            0      0.00%     15.69% # Class of committed instruction
system.switch_cpus.commit.op_class_0::SimdShift           32      0.00%     15.69% # Class of committed instruction
system.switch_cpus.commit.op_class_0::SimdShiftAcc            0      0.00%     15.69% # Class of committed instruction
system.switch_cpus.commit.op_class_0::SimdDiv            0      0.00%     15.69% # Class of committed instruction
system.switch_cpus.commit.op_class_0::SimdSqrt            0      0.00%     15.69% # Class of committed instruction
system.switch_cpus.commit.op_class_0::SimdFloatAdd      5262290     23.52%     39.21% # Class of committed instruction
system.switch_cpus.commit.op_class_0::SimdFloatAlu            0      0.00%     39.21% # Class of committed instruction
system.switch_cpus.commit.op_class_0::SimdFloatCmp            0      0.00%     39.21% # Class of committed instruction
system.switch_cpus.commit.op_class_0::SimdFloatCvt            0      0.00%     39.21% # Class of committed instruction
system.switch_cpus.commit.op_class_0::SimdFloatDiv        10955      0.05%     39.26% # Class of committed instruction
system.switch_cpus.commit.op_class_0::SimdFloatMisc            0      0.00%     39.26% # Class of committed instruction
system.switch_cpus.commit.op_class_0::SimdFloatMult      3855430     17.23%     56.49% # Class of committed instruction
system.switch_cpus.commit.op_class_0::SimdFloatMultAcc            0      0.00%     56.49% # Class of committed instruction
system.switch_cpus.commit.op_class_0::SimdFloatSqrt            0      0.00%     56.49% # Class of committed instruction
system.switch_cpus.commit.op_class_0::SimdReduceAdd            0      0.00%     56.49% # Class of committed instruction
system.switch_cpus.commit.op_class_0::SimdReduceAlu            0      0.00%     56.49% # Class of committed instruction
system.switch_cpus.commit.op_class_0::SimdReduceCmp            0      0.00%     56.49% # Class of committed instruction
system.switch_cpus.commit.op_class_0::SimdFloatReduceAdd            0      0.00%     56.49% # Class of committed instruction
system.switch_cpus.commit.op_class_0::SimdFloatReduceCmp            0      0.00%     56.49% # Class of committed instruction
system.switch_cpus.commit.op_class_0::SimdAes            0      0.00%     56.49% # Class of committed instruction
system.switch_cpus.commit.op_class_0::SimdAesMix            0      0.00%     56.49% # Class of committed instruction
system.switch_cpus.commit.op_class_0::SimdSha1Hash            0      0.00%     56.49% # Class of committed instruction
system.switch_cpus.commit.op_class_0::SimdSha1Hash2            0      0.00%     56.49% # Class of committed instruction
system.switch_cpus.commit.op_class_0::SimdSha256Hash            0      0.00%     56.49% # Class of committed instruction
system.switch_cpus.commit.op_class_0::SimdSha256Hash2            0      0.00%     56.49% # Class of committed instruction
system.switch_cpus.commit.op_class_0::SimdShaSigma2            0      0.00%     56.49% # Class of committed instruction
system.switch_cpus.commit.op_class_0::SimdShaSigma3            0      0.00%     56.49% # Class of committed instruction
system.switch_cpus.commit.op_class_0::SimdPredAlu            0      0.00%     56.49% # Class of committed instruction
system.switch_cpus.commit.op_class_0::MemRead       756767      3.38%     59.87% # Class of committed instruction
system.switch_cpus.commit.op_class_0::MemWrite        77584      0.35%     60.22% # Class of committed instruction
system.switch_cpus.commit.op_class_0::FloatMemRead      6749985     30.17%     90.39% # Class of committed instruction
system.switch_cpus.commit.op_class_0::FloatMemWrite      2150404      9.61%    100.00% # Class of committed instruction
system.switch_cpus.commit.op_class_0::IprAccess            0      0.00%    100.00% # Class of committed instruction
system.switch_cpus.commit.op_class_0::InstPrefetch            0      0.00%    100.00% # Class of committed instruction
system.switch_cpus.commit.op_class_0::total     22374656                       # Class of committed instruction
system.switch_cpus.commit.refs                9734740                       # Number of memory references committed
system.switch_cpus.commit.swp_count                 0                       # Number of s/w prefetches committed
system.switch_cpus.commit.vec_insts                 0                       # Number of committed Vector instructions.
system.switch_cpus.committedInsts            10000001                       # Number of Instructions Simulated
system.switch_cpus.committedOps              22374656                       # Number of Ops (including micro ops) Simulated
system.switch_cpus.cpi                       1.431529                       # CPI: Cycles Per Instruction
system.switch_cpus.cpi_total                 1.431529                       # CPI: Total CPI of All Threads
system.switch_cpus.decode.BlockedCycles      10252161                       # Number of cycles decode is blocked
system.switch_cpus.decode.DecodedInsts       23466103                       # Number of instructions handled by decode
system.switch_cpus.decode.IdleCycles           794258                       # Number of cycles decode is idle
system.switch_cpus.decode.RunCycles           2447670                       # Number of cycles decode is running
system.switch_cpus.decode.SquashCycles          13917                       # Number of cycles decode is squashing
system.switch_cpus.decode.UnblockCycles        688460                       # Number of cycles decode is unblocking
system.switch_cpus.dtb.rdAccesses             7695931                       # TLB accesses on read requests
system.switch_cpus.dtb.rdMisses                  1954                       # TLB misses on read requests
system.switch_cpus.dtb.wrAccesses             2376239                       # TLB accesses on write requests
system.switch_cpus.dtb.wrMisses                   716                       # TLB misses on write requests
system.switch_cpus.fetch.Branches              182496                       # Number of branches that fetch encountered
system.switch_cpus.fetch.CacheLines           1124198                       # Number of cache lines fetched
system.switch_cpus.fetch.Cycles              12978185                       # Number of cycles fetch has run and was not squashing or blocked
system.switch_cpus.fetch.IcacheSquashes          2245                       # Number of outstanding Icache misses that were squashed
system.switch_cpus.fetch.IcacheWaitRetryStallCycles           61                       # Number of stall cycles due to full MSHR
system.switch_cpus.fetch.Insts               10761674                       # Number of instructions fetch has processed
system.switch_cpus.fetch.MiscStallCycles          180                       # Number of cycles fetch has spent waiting on interrupts, or bad addresses, or out of MSHRs
system.switch_cpus.fetch.PendingTrapStallCycles         1171                       # Number of stall cycles due to pending traps
system.switch_cpus.fetch.SquashCycles           27834                       # Number of cycles fetch has spent squashing
system.switch_cpus.fetch.branchRate          0.012748                       # Number of branch fetches per cycle
system.switch_cpus.fetch.icacheStallCycles      1203289                       # Number of cycles fetch is stalled on an Icache miss
system.switch_cpus.fetch.predictedBranches        88559                       # Number of branches that fetch has predicted taken
system.switch_cpus.fetch.rate                0.751761                       # Number of inst fetches per cycle
system.switch_cpus.fetch.rateDist::samples     14196803                       # Number of instructions fetched each cycle (Total)
system.switch_cpus.fetch.rateDist::mean      1.673278                       # Number of instructions fetched each cycle (Total)
system.switch_cpus.fetch.rateDist::stdev     3.089263                       # Number of instructions fetched each cycle (Total)
system.switch_cpus.fetch.rateDist::underflows            0      0.00%      0.00% # Number of instructions fetched each cycle (Total)
system.switch_cpus.fetch.rateDist::0         10633483     74.90%     74.90% # Number of instructions fetched each cycle (Total)
system.switch_cpus.fetch.rateDist::1           112017      0.79%     75.69% # Number of instructions fetched each cycle (Total)
system.switch_cpus.fetch.rateDist::2           218791      1.54%     77.23% # Number of instructions fetched each cycle (Total)
system.switch_cpus.fetch.rateDist::3           175425      1.24%     78.47% # Number of instructions fetched each cycle (Total)
system.switch_cpus.fetch.rateDist::4           192185      1.35%     79.82% # Number of instructions fetched each cycle (Total)
system.switch_cpus.fetch.rateDist::5           151003      1.06%     80.88% # Number of instructions fetched each cycle (Total)
system.switch_cpus.fetch.rateDist::6           232834      1.64%     82.52% # Number of instructions fetched each cycle (Total)
system.switch_cpus.fetch.rateDist::7            89958      0.63%     83.16% # Number of instructions fetched each cycle (Total)
system.switch_cpus.fetch.rateDist::8          2391107     16.84%    100.00% # Number of instructions fetched each cycle (Total)
system.switch_cpus.fetch.rateDist::overflows            0      0.00%    100.00% # Number of instructions fetched each cycle (Total)
system.switch_cpus.fetch.rateDist::min_value            0                       # Number of instructions fetched each cycle (Total)
system.switch_cpus.fetch.rateDist::max_value            8                       # Number of instructions fetched each cycle (Total)
system.switch_cpus.fetch.rateDist::total     14196803                       # Number of instructions fetched each cycle (Total)
system.switch_cpus.fp_regfile_reads          34696659                       # number of floating regfile reads
system.switch_cpus.fp_regfile_writes         18488874                       # number of floating regfile writes
system.switch_cpus.idleCycles                  118484                       # Total number of cycles that the CPU has spent unscheduled due to idling
system.switch_cpus.iew.branchMispredicts         9811                       # Number of branch mispredicts detected at execute
system.switch_cpus.iew.exec_branches           138915                       # Number of branches executed
system.switch_cpus.iew.exec_nop                     0                       # number of nop insts executed
system.switch_cpus.iew.exec_rate             1.627349                       # Inst execution rate
system.switch_cpus.iew.exec_refs             10243428                       # number of memory reference insts executed
system.switch_cpus.iew.exec_stores            2376239                       # Number of stores executed
system.switch_cpus.iew.exec_swp                     0                       # number of swp insts executed
system.switch_cpus.iew.iewBlockCycles          227348                       # Number of cycles IEW is blocking
system.switch_cpus.iew.iewDispLoadInsts       7712322                       # Number of dispatched load instructions
system.switch_cpus.iew.iewDispNonSpecInsts           12                       # Number of dispatched non-speculative instructions
system.switch_cpus.iew.iewDispSquashedInsts          404                       # Number of squashed instructions skipped by dispatch
system.switch_cpus.iew.iewDispStoreInsts      2446621                       # Number of dispatched store instructions
system.switch_cpus.iew.iewDispatchedInsts     23298721                       # Number of instructions dispatched to IQ
system.switch_cpus.iew.iewExecLoadInsts       7867189                       # Number of load instructions executed
system.switch_cpus.iew.iewExecSquashedInsts        20278                       # Number of squashed instructions skipped in execute
system.switch_cpus.iew.iewExecutedInsts      23295971                       # Number of executed instructions
system.switch_cpus.iew.iewIQFullEvents           2109                       # Number of times the IQ has become full, causing a stall
system.switch_cpus.iew.iewIdleCycles                0                       # Number of cycles IEW is idle
system.switch_cpus.iew.iewLSQFullEvents       3541919                       # Number of times the LSQ has become full, causing a stall
system.switch_cpus.iew.iewSquashCycles          13917                       # Number of cycles IEW is squashing
system.switch_cpus.iew.iewUnblockCycles       3547749                       # Number of cycles IEW is unblocking
system.switch_cpus.iew.lsq.thread0.blockedLoads            0                       # Number of blocked loads due to partial load-store forwarding
system.switch_cpus.iew.lsq.thread0.cacheBlocked        33994                       # Number of times an access to memory failed due to the cache being blocked
system.switch_cpus.iew.lsq.thread0.forwLoads       598829                       # Number of loads that had data forwarded from stores
system.switch_cpus.iew.lsq.thread0.ignoredResponses           88                       # Number of memory responses ignored because the instruction is squashed
system.switch_cpus.iew.lsq.thread0.invAddrLoads            0                       # Number of loads ignored due to an invalid address
system.switch_cpus.iew.lsq.thread0.invAddrSwpfs            0                       # Number of software prefetches ignored due to an invalid address
system.switch_cpus.iew.lsq.thread0.memOrderViolation          308                       # Number of memory ordering violations
system.switch_cpus.iew.lsq.thread0.rescheduledLoads            0                       # Number of loads that were rescheduled
system.switch_cpus.iew.lsq.thread0.squashedLoads       205545                       # Number of loads squashed
system.switch_cpus.iew.lsq.thread0.squashedStores       218629                       # Number of stores squashed
system.switch_cpus.iew.memOrderViolationEvents          308                       # Number of memory order violations
system.switch_cpus.iew.predictedNotTakenIncorrect         7893                       # Number of branches that were predicted not taken incorrectly
system.switch_cpus.iew.predictedTakenIncorrect         1918                       # Number of branches that were predicted taken incorrectly
system.switch_cpus.iew.wb_consumers          28683460                       # num instructions consuming a value
system.switch_cpus.iew.wb_count              23052280                       # cumulative count of insts written-back
system.switch_cpus.iew.wb_fanout             0.607612                       # average fanout of values written-back
system.switch_cpus.iew.wb_producers          17428425                       # num instructions producing a value
system.switch_cpus.iew.wb_rate               1.610326                       # insts written-back per cycle
system.switch_cpus.iew.wb_sent               23109063                       # cumulative count of insts sent to commit
system.switch_cpus.int_regfile_reads         22028954                       # number of integer regfile reads
system.switch_cpus.int_regfile_writes         2048586                       # number of integer regfile writes
system.switch_cpus.ipc                       0.698554                       # IPC: Instructions Per Cycle
system.switch_cpus.ipc_total                 0.698554                       # IPC: Total IPC of All Threads
system.switch_cpus.iq.FU_type_0::No_OpClass        55767      0.24%      0.24% # Type of FU issued
system.switch_cpus.iq.FU_type_0::IntAlu       3808967     16.34%     16.58% # Type of FU issued
system.switch_cpus.iq.FU_type_0::IntMult          655      0.00%     16.58% # Type of FU issued
system.switch_cpus.iq.FU_type_0::IntDiv           140      0.00%     16.58% # Type of FU issued
system.switch_cpus.iq.FU_type_0::FloatAdd         3651      0.02%     16.59% # Type of FU issued
system.switch_cpus.iq.FU_type_0::FloatCmp            0      0.00%     16.59% # Type of FU issued
system.switch_cpus.iq.FU_type_0::FloatCvt            0      0.00%     16.59% # Type of FU issued
system.switch_cpus.iq.FU_type_0::FloatMult            0      0.00%     16.59% # Type of FU issued
system.switch_cpus.iq.FU_type_0::FloatMultAcc            0      0.00%     16.59% # Type of FU issued
system.switch_cpus.iq.FU_type_0::FloatDiv            0      0.00%     16.59% # Type of FU issued
system.switch_cpus.iq.FU_type_0::FloatMisc            0      0.00%     16.59% # Type of FU issued
system.switch_cpus.iq.FU_type_0::FloatSqrt            0      0.00%     16.59% # Type of FU issued
system.switch_cpus.iq.FU_type_0::SimdAdd          793      0.00%     16.60% # Type of FU issued
system.switch_cpus.iq.FU_type_0::SimdAddAcc            0      0.00%     16.60% # Type of FU issued
system.switch_cpus.iq.FU_type_0::SimdAlu        56961      0.24%     16.84% # Type of FU issued
system.switch_cpus.iq.FU_type_0::SimdCmp            0      0.00%     16.84% # Type of FU issued
system.switch_cpus.iq.FU_type_0::SimdCvt         5015      0.02%     16.86% # Type of FU issued
system.switch_cpus.iq.FU_type_0::SimdMisc         5149      0.02%     16.89% # Type of FU issued
system.switch_cpus.iq.FU_type_0::SimdMult            0      0.00%     16.89% # Type of FU issued
system.switch_cpus.iq.FU_type_0::SimdMultAcc            0      0.00%     16.89% # Type of FU issued
system.switch_cpus.iq.FU_type_0::SimdShift           81      0.00%     16.89% # Type of FU issued
system.switch_cpus.iq.FU_type_0::SimdShiftAcc            0      0.00%     16.89% # Type of FU issued
system.switch_cpus.iq.FU_type_0::SimdDiv            0      0.00%     16.89% # Type of FU issued
system.switch_cpus.iq.FU_type_0::SimdSqrt            0      0.00%     16.89% # Type of FU issued
system.switch_cpus.iq.FU_type_0::SimdFloatAdd      5262504     22.57%     39.46% # Type of FU issued
system.switch_cpus.iq.FU_type_0::SimdFloatAlu            0      0.00%     39.46% # Type of FU issued
system.switch_cpus.iq.FU_type_0::SimdFloatCmp            0      0.00%     39.46% # Type of FU issued
system.switch_cpus.iq.FU_type_0::SimdFloatCvt            0      0.00%     39.46% # Type of FU issued
system.switch_cpus.iq.FU_type_0::SimdFloatDiv        10955      0.05%     39.50% # Type of FU issued
system.switch_cpus.iq.FU_type_0::SimdFloatMisc            0      0.00%     39.50% # Type of FU issued
system.switch_cpus.iq.FU_type_0::SimdFloatMult      3855524     16.54%     56.04% # Type of FU issued
system.switch_cpus.iq.FU_type_0::SimdFloatMultAcc            0      0.00%     56.04% # Type of FU issued
system.switch_cpus.iq.FU_type_0::SimdFloatSqrt            0      0.00%     56.04% # Type of FU issued
system.switch_cpus.iq.FU_type_0::SimdReduceAdd            0      0.00%     56.04% # Type of FU issued
system.switch_cpus.iq.FU_type_0::SimdReduceAlu            0      0.00%     56.04% # Type of FU issued
system.switch_cpus.iq.FU_type_0::SimdReduceCmp            0      0.00%     56.04% # Type of FU issued
system.switch_cpus.iq.FU_type_0::SimdFloatReduceAdd            0      0.00%     56.04% # Type of FU issued
system.switch_cpus.iq.FU_type_0::SimdFloatReduceCmp            0      0.00%     56.04% # Type of FU issued
system.switch_cpus.iq.FU_type_0::SimdAes            0      0.00%     56.04% # Type of FU issued
system.switch_cpus.iq.FU_type_0::SimdAesMix            0      0.00%     56.04% # Type of FU issued
system.switch_cpus.iq.FU_type_0::SimdSha1Hash            0      0.00%     56.04% # Type of FU issued
system.switch_cpus.iq.FU_type_0::SimdSha1Hash2            0      0.00%     56.04% # Type of FU issued
system.switch_cpus.iq.FU_type_0::SimdSha256Hash            0      0.00%     56.04% # Type of FU issued
system.switch_cpus.iq.FU_type_0::SimdSha256Hash2            0      0.00%     56.04% # Type of FU issued
system.switch_cpus.iq.FU_type_0::SimdShaSigma2            0      0.00%     56.04% # Type of FU issued
system.switch_cpus.iq.FU_type_0::SimdShaSigma3            0      0.00%     56.04% # Type of FU issued
system.switch_cpus.iq.FU_type_0::SimdPredAlu            0      0.00%     56.04% # Type of FU issued
system.switch_cpus.iq.FU_type_0::MemRead       907070      3.89%     59.93% # Type of FU issued
system.switch_cpus.iq.FU_type_0::MemWrite       131777      0.57%     60.49% # Type of FU issued
system.switch_cpus.iq.FU_type_0::FloatMemRead      6965343     29.87%     90.37% # Type of FU issued
system.switch_cpus.iq.FU_type_0::FloatMemWrite      2245900      9.63%    100.00% # Type of FU issued
system.switch_cpus.iq.FU_type_0::IprAccess            0      0.00%    100.00% # Type of FU issued
system.switch_cpus.iq.FU_type_0::InstPrefetch            0      0.00%    100.00% # Type of FU issued
system.switch_cpus.iq.FU_type_0::total       23316252                       # Type of FU issued
system.switch_cpus.iq.fp_alu_accesses        21772691                       # Number of floating point alu accesses
system.switch_cpus.iq.fp_inst_queue_reads     42648373                       # Number of floating instruction queue reads
system.switch_cpus.iq.fp_inst_queue_wakeup_accesses     20736718                       # Number of floating instruction queue wakeup accesses
system.switch_cpus.iq.fp_inst_queue_writes     21030187                       # Number of floating instruction queue writes
system.switch_cpus.iq.fu_busy_cnt             1013852                       # FU busy when requested
system.switch_cpus.iq.fu_busy_rate           0.043483                       # FU busy rate (busy events/executed inst)
system.switch_cpus.iq.fu_full::No_OpClass            0      0.00%      0.00% # attempts to use FU when none available
system.switch_cpus.iq.fu_full::IntAlu           13641      1.35%      1.35% # attempts to use FU when none available
system.switch_cpus.iq.fu_full::IntMult              0      0.00%      1.35% # attempts to use FU when none available
system.switch_cpus.iq.fu_full::IntDiv               0      0.00%      1.35% # attempts to use FU when none available
system.switch_cpus.iq.fu_full::FloatAdd             0      0.00%      1.35% # attempts to use FU when none available
system.switch_cpus.iq.fu_full::FloatCmp             0      0.00%      1.35% # attempts to use FU when none available
system.switch_cpus.iq.fu_full::FloatCvt             0      0.00%      1.35% # attempts to use FU when none available
system.switch_cpus.iq.fu_full::FloatMult            0      0.00%      1.35% # attempts to use FU when none available
system.switch_cpus.iq.fu_full::FloatMultAcc            0      0.00%      1.35% # attempts to use FU when none available
system.switch_cpus.iq.fu_full::FloatDiv             0      0.00%      1.35% # attempts to use FU when none available
system.switch_cpus.iq.fu_full::FloatMisc            0      0.00%      1.35% # attempts to use FU when none available
system.switch_cpus.iq.fu_full::FloatSqrt            0      0.00%      1.35% # attempts to use FU when none available
system.switch_cpus.iq.fu_full::SimdAdd              0      0.00%      1.35% # attempts to use FU when none available
system.switch_cpus.iq.fu_full::SimdAddAcc            0      0.00%      1.35% # attempts to use FU when none available
system.switch_cpus.iq.fu_full::SimdAlu            733      0.07%      1.42% # attempts to use FU when none available
system.switch_cpus.iq.fu_full::SimdCmp              0      0.00%      1.42% # attempts to use FU when none available
system.switch_cpus.iq.fu_full::SimdCvt              0      0.00%      1.42% # attempts to use FU when none available
system.switch_cpus.iq.fu_full::SimdMisc           363      0.04%      1.45% # attempts to use FU when none available
system.switch_cpus.iq.fu_full::SimdMult             0      0.00%      1.45% # attempts to use FU when none available
system.switch_cpus.iq.fu_full::SimdMultAcc            0      0.00%      1.45% # attempts to use FU when none available
system.switch_cpus.iq.fu_full::SimdShift            0      0.00%      1.45% # attempts to use FU when none available
system.switch_cpus.iq.fu_full::SimdShiftAcc            0      0.00%      1.45% # attempts to use FU when none available
system.switch_cpus.iq.fu_full::SimdDiv              0      0.00%      1.45% # attempts to use FU when none available
system.switch_cpus.iq.fu_full::SimdSqrt             0      0.00%      1.45% # attempts to use FU when none available
system.switch_cpus.iq.fu_full::SimdFloatAdd       117181     11.56%     13.01% # attempts to use FU when none available
system.switch_cpus.iq.fu_full::SimdFloatAlu            0      0.00%     13.01% # attempts to use FU when none available
system.switch_cpus.iq.fu_full::SimdFloatCmp            0      0.00%     13.01% # attempts to use FU when none available
system.switch_cpus.iq.fu_full::SimdFloatCvt            0      0.00%     13.01% # attempts to use FU when none available
system.switch_cpus.iq.fu_full::SimdFloatDiv            0      0.00%     13.01% # attempts to use FU when none available
system.switch_cpus.iq.fu_full::SimdFloatMisc            0      0.00%     13.01% # attempts to use FU when none available
system.switch_cpus.iq.fu_full::SimdFloatMult       254952     25.15%     38.16% # attempts to use FU when none available
system.switch_cpus.iq.fu_full::SimdFloatMultAcc            0      0.00%     38.16% # attempts to use FU when none available
system.switch_cpus.iq.fu_full::SimdFloatSqrt            0      0.00%     38.16% # attempts to use FU when none available
system.switch_cpus.iq.fu_full::SimdReduceAdd            0      0.00%     38.16% # attempts to use FU when none available
system.switch_cpus.iq.fu_full::SimdReduceAlu            0      0.00%     38.16% # attempts to use FU when none available
system.switch_cpus.iq.fu_full::SimdReduceCmp            0      0.00%     38.16% # attempts to use FU when none available
system.switch_cpus.iq.fu_full::SimdFloatReduceAdd            0      0.00%     38.16% # attempts to use FU when none available
system.switch_cpus.iq.fu_full::SimdFloatReduceCmp            0      0.00%     38.16% # attempts to use FU when none available
system.switch_cpus.iq.fu_full::SimdAes              0      0.00%     38.16% # attempts to use FU when none available
system.switch_cpus.iq.fu_full::SimdAesMix            0      0.00%     38.16% # attempts to use FU when none available
system.switch_cpus.iq.fu_full::SimdSha1Hash            0      0.00%     38.16% # attempts to use FU when none available
system.switch_cpus.iq.fu_full::SimdSha1Hash2            0      0.00%     38.16% # attempts to use FU when none available
system.switch_cpus.iq.fu_full::SimdSha256Hash            0      0.00%     38.16% # attempts to use FU when none available
system.switch_cpus.iq.fu_full::SimdSha256Hash2            0      0.00%     38.16% # attempts to use FU when none available
system.switch_cpus.iq.fu_full::SimdShaSigma2            0      0.00%     38.16% # attempts to use FU when none available
system.switch_cpus.iq.fu_full::SimdShaSigma3            0      0.00%     38.16% # attempts to use FU when none available
system.switch_cpus.iq.fu_full::SimdPredAlu            0      0.00%     38.16% # attempts to use FU when none available
system.switch_cpus.iq.fu_full::MemRead          88151      8.69%     46.85% # attempts to use FU when none available
system.switch_cpus.iq.fu_full::MemWrite         14488      1.43%     48.28% # attempts to use FU when none available
system.switch_cpus.iq.fu_full::FloatMemRead       473330     46.69%     94.97% # attempts to use FU when none available
system.switch_cpus.iq.fu_full::FloatMemWrite        51013      5.03%    100.00% # attempts to use FU when none available
system.switch_cpus.iq.fu_full::IprAccess            0      0.00%    100.00% # attempts to use FU when none available
system.switch_cpus.iq.fu_full::InstPrefetch            0      0.00%    100.00% # attempts to use FU when none available
system.switch_cpus.iq.int_alu_accesses        2501646                       # Number of integer alu accesses
system.switch_cpus.iq.int_inst_queue_reads     19199177                       # Number of integer instruction queue reads
system.switch_cpus.iq.int_inst_queue_wakeup_accesses      2315562                       # Number of integer instruction queue wakeup accesses
system.switch_cpus.iq.int_inst_queue_writes      3192844                       # Number of integer instruction queue writes
system.switch_cpus.iq.iqInstsAdded           23293884                       # Number of instructions added to the IQ (excludes non-spec)
system.switch_cpus.iq.iqInstsIssued          23316252                       # Number of instructions issued
system.switch_cpus.iq.iqNonSpecInstsAdded         4837                       # Number of non-speculative instructions added to the IQ
system.switch_cpus.iq.iqSquashedInstsExamined       924020                       # Number of squashed instructions iterated over during squash; mainly for profiling
system.switch_cpus.iq.iqSquashedInstsIssued         4394                       # Number of squashed instructions issued
system.switch_cpus.iq.iqSquashedNonSpecRemoved         4432                       # Number of squashed non-spec instructions that were removed
system.switch_cpus.iq.iqSquashedOperandsExamined       644631                       # Number of squashed operands that are examined and possibly removed from graph
system.switch_cpus.iq.issued_per_cycle::samples     14196803                       # Number of insts issued each cycle
system.switch_cpus.iq.issued_per_cycle::mean     1.642359                       # Number of insts issued each cycle
system.switch_cpus.iq.issued_per_cycle::stdev     2.457046                       # Number of insts issued each cycle
system.switch_cpus.iq.issued_per_cycle::underflows            0      0.00%      0.00% # Number of insts issued each cycle
system.switch_cpus.iq.issued_per_cycle::0      8653106     60.95%     60.95% # Number of insts issued each cycle
system.switch_cpus.iq.issued_per_cycle::1       740345      5.21%     66.17% # Number of insts issued each cycle
system.switch_cpus.iq.issued_per_cycle::2       785549      5.53%     71.70% # Number of insts issued each cycle
system.switch_cpus.iq.issued_per_cycle::3       655433      4.62%     76.32% # Number of insts issued each cycle
system.switch_cpus.iq.issued_per_cycle::4       920779      6.49%     82.80% # Number of insts issued each cycle
system.switch_cpus.iq.issued_per_cycle::5       725434      5.11%     87.91% # Number of insts issued each cycle
system.switch_cpus.iq.issued_per_cycle::6       766254      5.40%     93.31% # Number of insts issued each cycle
system.switch_cpus.iq.issued_per_cycle::7       468524      3.30%     96.61% # Number of insts issued each cycle
system.switch_cpus.iq.issued_per_cycle::8       481379      3.39%    100.00% # Number of insts issued each cycle
system.switch_cpus.iq.issued_per_cycle::overflows            0      0.00%    100.00% # Number of insts issued each cycle
system.switch_cpus.iq.issued_per_cycle::min_value            0                       # Number of insts issued each cycle
system.switch_cpus.iq.issued_per_cycle::max_value            8                       # Number of insts issued each cycle
system.switch_cpus.iq.issued_per_cycle::total     14196803                       # Number of insts issued each cycle
system.switch_cpus.iq.rate                   1.628766                       # Inst issue rate
system.switch_cpus.iq.vec_alu_accesses              0                       # Number of vector alu accesses
system.switch_cpus.iq.vec_inst_queue_reads            0                       # Number of vector instruction queue reads
system.switch_cpus.iq.vec_inst_queue_wakeup_accesses            0                       # Number of vector instruction queue wakeup accesses
system.switch_cpus.iq.vec_inst_queue_writes            0                       # Number of vector instruction queue writes
system.switch_cpus.itb.rdAccesses                   0                       # TLB accesses on read requests
system.switch_cpus.itb.rdMisses                     0                       # TLB misses on read requests
system.switch_cpus.itb.wrAccesses             1124396                       # TLB accesses on write requests
system.switch_cpus.itb.wrMisses                   280                       # TLB misses on write requests
system.switch_cpus.memDep0.conflictingLoads        18486                       # Number of conflicting loads.
system.switch_cpus.memDep0.conflictingStores       111538                       # Number of conflicting stores.
system.switch_cpus.memDep0.insertedLoads      7712322                       # Number of loads inserted to the mem dependence unit.
system.switch_cpus.memDep0.insertedStores      2446621                       # Number of stores inserted to the mem dependence unit.
system.switch_cpus.misc_regfile_reads        10754294                       # number of misc regfile reads
system.switch_cpus.misc_regfile_writes              1                       # number of misc regfile writes
system.switch_cpus.numCycles                 14315287                       # number of cpu cycles simulated
system.switch_cpus.numWorkItemsCompleted            0                       # number of work items this cpu completed
system.switch_cpus.numWorkItemsStarted              0                       # number of work items this cpu started
system.switch_cpus.rename.BlockCycles         3837243                       # Number of cycles rename is blocking
system.switch_cpus.rename.CommittedMaps      20443121                       # Number of HB maps that are committed
system.switch_cpus.rename.IQFullEvents          89880                       # Number of times rename has blocked due to IQ full
system.switch_cpus.rename.IdleCycles          1107989                       # Number of cycles rename is idle
system.switch_cpus.rename.LQFullEvents        1207746                       # Number of times rename has blocked due to LQ full
system.switch_cpus.rename.ROBFullEvents         17914                       # Number of times rename has blocked due to ROB full
system.switch_cpus.rename.RenameLookups      68497887                       # Number of register rename lookups that rename has made
system.switch_cpus.rename.RenamedInsts       23382215                       # Number of instructions processed by rename
system.switch_cpus.rename.RenamedOperands     21384317                       # Number of destination operands rename has renamed
system.switch_cpus.rename.RunCycles           2813514                       # Number of cycles rename is running
system.switch_cpus.rename.SQFullEvents        4973441                       # Number of times rename has blocked due to SQ full
system.switch_cpus.rename.SquashCycles          13917                       # Number of cycles rename is squashing
system.switch_cpus.rename.UnblockCycles       6423564                       # Number of cycles rename is unblocking
system.switch_cpus.rename.UndoneMaps           941142                       # Number of HB maps that are undone due to squashing
system.switch_cpus.rename.fp_rename_lookups     34764072                       # Number of floating rename lookups
system.switch_cpus.rename.int_rename_lookups     22157206                       # Number of integer rename lookups
system.switch_cpus.rename.serializeStallCycles          239                       # count of cycles rename stalled for serializing inst
system.switch_cpus.rename.serializingInsts           13                       # count of serializing insts renamed
system.switch_cpus.rename.skidInsts           4168458                       # count of insts added to the skid buffer
system.switch_cpus.rename.tempSerializingInsts           13                       # count of temporary serializing insts renamed
system.switch_cpus.rob.rob_reads             35697801                       # The number of ROB reads
system.switch_cpus.rob.rob_writes            46471775                       # The number of ROB writes
system.switch_cpus.timesIdled                    1386                       # Number of times that the entire CPU went into an idle state and unscheduled itself
system.tol2bus.snoop_filter.hit_multi_requests            5                       # Number of requests hitting in the snoop filter with multiple (>1) holders of the requested data.
system.tol2bus.snoop_filter.hit_multi_snoops            1                       # Number of snoops hitting in the snoop filter with multiple (>1) holders of the requested data.
system.tol2bus.snoop_filter.hit_single_requests       119249                       # Number of requests hitting in the snoop filter with a single holder of the requested data.
system.tol2bus.snoop_filter.hit_single_snoops         9839                       # Number of snoops hitting in the snoop filter with a single holder of the requested data.
system.tol2bus.snoop_filter.tot_requests       240038                       # Total number of requests made to the snoop filter.
system.tol2bus.snoop_filter.tot_snoops           9840                       # Total number of snoops made to the snoop filter.
system.membus.pwrStateResidencyTicks::UNDEFINED 371668252537000                       # Cumulative time (in ticks) in various power states
system.membus.trans_dist::ReadResp              54653                       # Transaction distribution
system.membus.trans_dist::WritebackDirty        22861                       # Transaction distribution
system.membus.trans_dist::CleanEvict            47541                       # Transaction distribution
system.membus.trans_dist::UpgradeReq                2                       # Transaction distribution
system.membus.trans_dist::ReadExReq             24457                       # Transaction distribution
system.membus.trans_dist::ReadExResp            24457                       # Transaction distribution
system.membus.trans_dist::ReadSharedReq         54653                       # Transaction distribution
system.membus.pkt_count_system.l2.mem_side::system.mem_ctrls.port       228624                       # Packet count per connected master and slave (bytes)
system.membus.pkt_count_system.l2.mem_side::total       228624                       # Packet count per connected master and slave (bytes)
system.membus.pkt_count::total                 228624                       # Packet count per connected master and slave (bytes)
system.membus.pkt_size_system.l2.mem_side::system.mem_ctrls.port      6526144                       # Cumulative packet size per connected master and slave (bytes)
system.membus.pkt_size_system.l2.mem_side::total      6526144                       # Cumulative packet size per connected master and slave (bytes)
system.membus.pkt_size::total                 6526144                       # Cumulative packet size per connected master and slave (bytes)
system.membus.snoops                                0                       # Total snoops (count)
system.membus.snoopTraffic                          0                       # Total snoop traffic (bytes)
system.membus.snoop_fanout::samples             79112                       # Request fanout histogram
system.membus.snoop_fanout::mean                    0                       # Request fanout histogram
system.membus.snoop_fanout::stdev                   0                       # Request fanout histogram
system.membus.snoop_fanout::underflows              0      0.00%      0.00% # Request fanout histogram
system.membus.snoop_fanout::0                   79112    100.00%    100.00% # Request fanout histogram
system.membus.snoop_fanout::1                       0      0.00%    100.00% # Request fanout histogram
system.membus.snoop_fanout::overflows               0      0.00%    100.00% # Request fanout histogram
system.membus.snoop_fanout::min_value               0                       # Request fanout histogram
system.membus.snoop_fanout::max_value               0                       # Request fanout histogram
system.membus.snoop_fanout::total               79112                       # Request fanout histogram
system.membus.reqLayer2.occupancy           255628000                       # Layer occupancy (ticks)
system.membus.reqLayer2.utilization               3.6                       # Layer utilization (%)
system.membus.respLayer1.occupancy          437570000                       # Layer occupancy (ticks)
system.membus.respLayer1.utilization              6.1                       # Layer utilization (%)
system.switch_cpus.pwrStateResidencyTicks::OFF   7157654500                       # Cumulative time (in ticks) in various power states
system.switch_cpus.dtb.walker.pwrStateResidencyTicks::UNDEFINED 371668252537000                       # Cumulative time (in ticks) in various power states
system.switch_cpus.itb.walker.pwrStateResidencyTicks::UNDEFINED 371668252537000                       # Cumulative time (in ticks) in various power states
system.tol2bus.pwrStateResidencyTicks::UNDEFINED 371668252537000                       # Cumulative time (in ticks) in various power states
system.tol2bus.trans_dist::ReadResp             85123                       # Transaction distribution
system.tol2bus.trans_dist::WritebackDirty        83400                       # Transaction distribution
system.tol2bus.trans_dist::WritebackClean         1754                       # Transaction distribution
system.tol2bus.trans_dist::CleanEvict          108410                       # Transaction distribution
system.tol2bus.trans_dist::UpgradeReq               2                       # Transaction distribution
system.tol2bus.trans_dist::UpgradeResp              2                       # Transaction distribution
system.tol2bus.trans_dist::ReadExReq            35662                       # Transaction distribution
system.tol2bus.trans_dist::ReadExResp           35662                       # Transaction distribution
system.tol2bus.trans_dist::ReadCleanReq          2266                       # Transaction distribution
system.tol2bus.trans_dist::ReadSharedReq        82859                       # Transaction distribution
system.tol2bus.pkt_count_system.cpu.icache.mem_side::system.l2.cpu_side         6284                       # Packet count per connected master and slave (bytes)
system.tol2bus.pkt_count_system.cpu.dcache.mem_side::system.l2.cpu_side       354539                       # Packet count per connected master and slave (bytes)
system.tol2bus.pkt_count::total                360823                       # Packet count per connected master and slave (bytes)
system.tol2bus.pkt_size_system.cpu.icache.mem_side::system.l2.cpu_side       257152                       # Cumulative packet size per connected master and slave (bytes)
system.tol2bus.pkt_size_system.cpu.dcache.mem_side::system.l2.cpu_side     11459712                       # Cumulative packet size per connected master and slave (bytes)
system.tol2bus.pkt_size::total               11716864                       # Cumulative packet size per connected master and slave (bytes)
system.tol2bus.snoops                           74317                       # Total snoops (count)
system.tol2bus.snoopTraffic                   1463232                       # Total snoop traffic (bytes)
system.tol2bus.snoop_fanout::samples           195104                       # Request fanout histogram
system.tol2bus.snoop_fanout::mean            0.050465                       # Request fanout histogram
system.tol2bus.snoop_fanout::stdev           0.218927                       # Request fanout histogram
system.tol2bus.snoop_fanout::underflows             0      0.00%      0.00% # Request fanout histogram
system.tol2bus.snoop_fanout::0                 185259     94.95%     94.95% # Request fanout histogram
system.tol2bus.snoop_fanout::1                   9844      5.05%    100.00% # Request fanout histogram
system.tol2bus.snoop_fanout::2                      1      0.00%    100.00% # Request fanout histogram
system.tol2bus.snoop_fanout::3                      0      0.00%    100.00% # Request fanout histogram
system.tol2bus.snoop_fanout::4                      0      0.00%    100.00% # Request fanout histogram
system.tol2bus.snoop_fanout::overflows              0      0.00%    100.00% # Request fanout histogram
system.tol2bus.snoop_fanout::min_value              0                       # Request fanout histogram
system.tol2bus.snoop_fanout::max_value              2                       # Request fanout histogram
system.tol2bus.snoop_fanout::total             195104                       # Request fanout histogram
system.tol2bus.reqLayer0.occupancy          182309000                       # Layer occupancy (ticks)
system.tol2bus.reqLayer0.utilization              2.5                       # Layer utilization (%)
system.tol2bus.respLayer1.occupancy         177773500                       # Layer occupancy (ticks)
system.tol2bus.respLayer1.utilization             2.5                       # Layer utilization (%)
system.tol2bus.respLayer0.occupancy           3396000                       # Layer occupancy (ticks)
system.tol2bus.respLayer0.utilization             0.0                       # Layer utilization (%)
system.voltage_domain.voltage                       1                       # Voltage in Volts
system.clk_domain.clock                          1000                       # Clock period in ticks
system.l2.pwrStateResidencyTicks::UNDEFINED 371668252537000                       # Cumulative time (in ticks) in various power states
system.l2.demand_hits::.switch_cpus.inst          852                       # number of demand (read+write) hits
system.l2.demand_hits::.switch_cpus.data        40823                       # number of demand (read+write) hits
system.l2.demand_hits::total                    41675                       # number of demand (read+write) hits
system.l2.overall_hits::.switch_cpus.inst          852                       # number of overall hits
system.l2.overall_hits::.switch_cpus.data        40823                       # number of overall hits
system.l2.overall_hits::total                   41675                       # number of overall hits
system.l2.demand_misses::.cpu.inst                  2                       # number of demand (read+write) misses
system.l2.demand_misses::.cpu.data                  4                       # number of demand (read+write) misses
system.l2.demand_misses::.switch_cpus.inst         1410                       # number of demand (read+write) misses
system.l2.demand_misses::.switch_cpus.data        77694                       # number of demand (read+write) misses
system.l2.demand_misses::total                  79110                       # number of demand (read+write) misses
system.l2.overall_misses::.cpu.inst                 2                       # number of overall misses
system.l2.overall_misses::.cpu.data                 4                       # number of overall misses
system.l2.overall_misses::.switch_cpus.inst         1410                       # number of overall misses
system.l2.overall_misses::.switch_cpus.data        77694                       # number of overall misses
system.l2.overall_misses::total                 79110                       # number of overall misses
system.l2.demand_miss_latency::.switch_cpus.inst    113237500                       # number of demand (read+write) miss cycles
system.l2.demand_miss_latency::.switch_cpus.data   7968637500                       # number of demand (read+write) miss cycles
system.l2.demand_miss_latency::total       8081875000                       # number of demand (read+write) miss cycles
system.l2.overall_miss_latency::.switch_cpus.inst    113237500                       # number of overall miss cycles
system.l2.overall_miss_latency::.switch_cpus.data   7968637500                       # number of overall miss cycles
system.l2.overall_miss_latency::total      8081875000                       # number of overall miss cycles
system.l2.demand_accesses::.cpu.inst                2                       # number of demand (read+write) accesses
system.l2.demand_accesses::.cpu.data                4                       # number of demand (read+write) accesses
system.l2.demand_accesses::.switch_cpus.inst         2262                       # number of demand (read+write) accesses
system.l2.demand_accesses::.switch_cpus.data       118517                       # number of demand (read+write) accesses
system.l2.demand_accesses::total               120785                       # number of demand (read+write) accesses
system.l2.overall_accesses::.cpu.inst               2                       # number of overall (read+write) accesses
system.l2.overall_accesses::.cpu.data               4                       # number of overall (read+write) accesses
system.l2.overall_accesses::.switch_cpus.inst         2262                       # number of overall (read+write) accesses
system.l2.overall_accesses::.switch_cpus.data       118517                       # number of overall (read+write) accesses
system.l2.overall_accesses::total              120785                       # number of overall (read+write) accesses
system.l2.demand_miss_rate::.cpu.inst               1                       # miss rate for demand accesses
system.l2.demand_miss_rate::.cpu.data               1                       # miss rate for demand accesses
system.l2.demand_miss_rate::.switch_cpus.inst     0.623342                       # miss rate for demand accesses
system.l2.demand_miss_rate::.switch_cpus.data     0.655552                       # miss rate for demand accesses
system.l2.demand_miss_rate::total            0.654965                       # miss rate for demand accesses
system.l2.overall_miss_rate::.cpu.inst              1                       # miss rate for overall accesses
system.l2.overall_miss_rate::.cpu.data              1                       # miss rate for overall accesses
system.l2.overall_miss_rate::.switch_cpus.inst     0.623342                       # miss rate for overall accesses
system.l2.overall_miss_rate::.switch_cpus.data     0.655552                       # miss rate for overall accesses
system.l2.overall_miss_rate::total           0.654965                       # miss rate for overall accesses
system.l2.demand_avg_miss_latency::.switch_cpus.inst 80310.283688                       # average overall miss latency
system.l2.demand_avg_miss_latency::.switch_cpus.data 102564.387211                       # average overall miss latency
system.l2.demand_avg_miss_latency::total 102159.967134                       # average overall miss latency
system.l2.overall_avg_miss_latency::.switch_cpus.inst 80310.283688                       # average overall miss latency
system.l2.overall_avg_miss_latency::.switch_cpus.data 102564.387211                       # average overall miss latency
system.l2.overall_avg_miss_latency::total 102159.967134                       # average overall miss latency
system.l2.blocked_cycles::no_mshrs                  0                       # number of cycles access was blocked
system.l2.blocked_cycles::no_targets                0                       # number of cycles access was blocked
system.l2.blocked::no_mshrs                         0                       # number of cycles access was blocked
system.l2.blocked::no_targets                       0                       # number of cycles access was blocked
system.l2.avg_blocked_cycles::no_mshrs            nan                       # average number of cycles each access was blocked
system.l2.avg_blocked_cycles::no_targets          nan                       # average number of cycles each access was blocked
system.l2.writebacks::.writebacks               22861                       # number of writebacks
system.l2.writebacks::total                     22861                       # number of writebacks
system.l2.demand_mshr_misses::.switch_cpus.inst         1410                       # number of demand (read+write) MSHR misses
system.l2.demand_mshr_misses::.switch_cpus.data        77694                       # number of demand (read+write) MSHR misses
system.l2.demand_mshr_misses::total             79104                       # number of demand (read+write) MSHR misses
system.l2.overall_mshr_misses::.switch_cpus.inst         1410                       # number of overall MSHR misses
system.l2.overall_mshr_misses::.switch_cpus.data        77694                       # number of overall MSHR misses
system.l2.overall_mshr_misses::total            79104                       # number of overall MSHR misses
system.l2.demand_mshr_miss_latency::.switch_cpus.inst     99137500                       # number of demand (read+write) MSHR miss cycles
system.l2.demand_mshr_miss_latency::.switch_cpus.data   7191697500                       # number of demand (read+write) MSHR miss cycles
system.l2.demand_mshr_miss_latency::total   7290835000                       # number of demand (read+write) MSHR miss cycles
system.l2.overall_mshr_miss_latency::.switch_cpus.inst     99137500                       # number of overall MSHR miss cycles
system.l2.overall_mshr_miss_latency::.switch_cpus.data   7191697500                       # number of overall MSHR miss cycles
system.l2.overall_mshr_miss_latency::total   7290835000                       # number of overall MSHR miss cycles
system.l2.demand_mshr_miss_rate::.switch_cpus.inst     0.623342                       # mshr miss rate for demand accesses
system.l2.demand_mshr_miss_rate::.switch_cpus.data     0.655552                       # mshr miss rate for demand accesses
system.l2.demand_mshr_miss_rate::total       0.654916                       # mshr miss rate for demand accesses
system.l2.overall_mshr_miss_rate::.switch_cpus.inst     0.623342                       # mshr miss rate for overall accesses
system.l2.overall_mshr_miss_rate::.switch_cpus.data     0.655552                       # mshr miss rate for overall accesses
system.l2.overall_mshr_miss_rate::total      0.654916                       # mshr miss rate for overall accesses
system.l2.demand_avg_mshr_miss_latency::.switch_cpus.inst 70310.283688                       # average overall mshr miss latency
system.l2.demand_avg_mshr_miss_latency::.switch_cpus.data 92564.387211                       # average overall mshr miss latency
system.l2.demand_avg_mshr_miss_latency::total 92167.715918                       # average overall mshr miss latency
system.l2.overall_avg_mshr_miss_latency::.switch_cpus.inst 70310.283688                       # average overall mshr miss latency
system.l2.overall_avg_mshr_miss_latency::.switch_cpus.data 92564.387211                       # average overall mshr miss latency
system.l2.overall_avg_mshr_miss_latency::total 92167.715918                       # average overall mshr miss latency
system.l2.replacements                          74315                       # number of replacements
system.l2.WritebackDirty_hits::.writebacks        60539                       # number of WritebackDirty hits
system.l2.WritebackDirty_hits::total            60539                       # number of WritebackDirty hits
system.l2.WritebackDirty_accesses::.writebacks        60539                       # number of WritebackDirty accesses(hits+misses)
system.l2.WritebackDirty_accesses::total        60539                       # number of WritebackDirty accesses(hits+misses)
system.l2.WritebackClean_hits::.writebacks         1753                       # number of WritebackClean hits
system.l2.WritebackClean_hits::total             1753                       # number of WritebackClean hits
system.l2.WritebackClean_accesses::.writebacks         1753                       # number of WritebackClean accesses(hits+misses)
system.l2.WritebackClean_accesses::total         1753                       # number of WritebackClean accesses(hits+misses)
system.l2.CleanEvict_mshr_misses::.writebacks         5926                       # number of CleanEvict MSHR misses
system.l2.CleanEvict_mshr_misses::total          5926                       # number of CleanEvict MSHR misses
system.l2.CleanEvict_mshr_miss_rate::.writebacks          inf                       # mshr miss rate for CleanEvict accesses
system.l2.CleanEvict_mshr_miss_rate::total          inf                       # mshr miss rate for CleanEvict accesses
system.l2.UpgradeReq_misses::.switch_cpus.data            2                       # number of UpgradeReq misses
system.l2.UpgradeReq_misses::total                  2                       # number of UpgradeReq misses
system.l2.UpgradeReq_accesses::.switch_cpus.data            2                       # number of UpgradeReq accesses(hits+misses)
system.l2.UpgradeReq_accesses::total                2                       # number of UpgradeReq accesses(hits+misses)
system.l2.UpgradeReq_miss_rate::.switch_cpus.data            1                       # miss rate for UpgradeReq accesses
system.l2.UpgradeReq_miss_rate::total               1                       # miss rate for UpgradeReq accesses
system.l2.UpgradeReq_mshr_misses::.switch_cpus.data            2                       # number of UpgradeReq MSHR misses
system.l2.UpgradeReq_mshr_misses::total             2                       # number of UpgradeReq MSHR misses
system.l2.UpgradeReq_mshr_miss_latency::.switch_cpus.data        39000                       # number of UpgradeReq MSHR miss cycles
system.l2.UpgradeReq_mshr_miss_latency::total        39000                       # number of UpgradeReq MSHR miss cycles
system.l2.UpgradeReq_mshr_miss_rate::.switch_cpus.data            1                       # mshr miss rate for UpgradeReq accesses
system.l2.UpgradeReq_mshr_miss_rate::total            1                       # mshr miss rate for UpgradeReq accesses
system.l2.UpgradeReq_avg_mshr_miss_latency::.switch_cpus.data        19500                       # average UpgradeReq mshr miss latency
system.l2.UpgradeReq_avg_mshr_miss_latency::total        19500                       # average UpgradeReq mshr miss latency
system.l2.ReadExReq_hits::.switch_cpus.data        11205                       # number of ReadExReq hits
system.l2.ReadExReq_hits::total                 11205                       # number of ReadExReq hits
system.l2.ReadExReq_misses::.switch_cpus.data        24457                       # number of ReadExReq misses
system.l2.ReadExReq_misses::total               24457                       # number of ReadExReq misses
system.l2.ReadExReq_miss_latency::.switch_cpus.data   2404046000                       # number of ReadExReq miss cycles
system.l2.ReadExReq_miss_latency::total    2404046000                       # number of ReadExReq miss cycles
system.l2.ReadExReq_accesses::.switch_cpus.data        35662                       # number of ReadExReq accesses(hits+misses)
system.l2.ReadExReq_accesses::total             35662                       # number of ReadExReq accesses(hits+misses)
system.l2.ReadExReq_miss_rate::.switch_cpus.data     0.685800                       # miss rate for ReadExReq accesses
system.l2.ReadExReq_miss_rate::total         0.685800                       # miss rate for ReadExReq accesses
system.l2.ReadExReq_avg_miss_latency::.switch_cpus.data 98296.847528                       # average ReadExReq miss latency
system.l2.ReadExReq_avg_miss_latency::total 98296.847528                       # average ReadExReq miss latency
system.l2.ReadExReq_mshr_misses::.switch_cpus.data        24457                       # number of ReadExReq MSHR misses
system.l2.ReadExReq_mshr_misses::total          24457                       # number of ReadExReq MSHR misses
system.l2.ReadExReq_mshr_miss_latency::.switch_cpus.data   2159476000                       # number of ReadExReq MSHR miss cycles
system.l2.ReadExReq_mshr_miss_latency::total   2159476000                       # number of ReadExReq MSHR miss cycles
system.l2.ReadExReq_mshr_miss_rate::.switch_cpus.data     0.685800                       # mshr miss rate for ReadExReq accesses
[...]
system.cpu.itb_walker_cache.tags.tag_accesses            0                       # Number of tag accesses
system.cpu.itb_walker_cache.tags.data_accesses            0                       # Number of data accesses
system.cpu.itb.walker.pwrStateResidencyTicks::UNDEFINED 371686817721500                       # Cumulative time (in ticks) in various power states
system.cpu.dtb_walker_cache.pwrStateResidencyTicks::UNDEFINED 371686817721500                       # Cumulative time (in ticks) in various power states
system.cpu.dtb_walker_cache.blocked_cycles::no_mshrs            0                       # number of cycles access was blocked
system.cpu.dtb_walker_cache.blocked_cycles::no_targets            0                       # number of cycles access was blocked
system.cpu.dtb_walker_cache.blocked::no_mshrs            0                       # number of cycles access was blocked
system.cpu.dtb_walker_cache.blocked::no_targets            0                       # number of cycles access was blocked
system.cpu.dtb_walker_cache.avg_blocked_cycles::no_mshrs          nan                       # average number of cycles each access was blocked
system.cpu.dtb_walker_cache.avg_blocked_cycles::no_targets          nan                       # average number of cycles each access was blocked
system.cpu.dtb_walker_cache.replacements            0                       # number of replacements
system.cpu.dtb_walker_cache.tags.pwrStateResidencyTicks::UNDEFINED 371686817721500                       # Cumulative time (in ticks) in various power states
system.cpu.dtb_walker_cache.tags.tagsinuse            0                       # Cycle average of tags in use
system.cpu.dtb_walker_cache.tags.total_refs            0                       # Total number of references to valid blocks.
system.cpu.dtb_walker_cache.tags.sampled_refs            0                       # Sample count of references to valid blocks.
system.cpu.dtb_walker_cache.tags.avg_refs          nan                       # Average number of references to valid blocks.
system.cpu.dtb_walker_cache.tags.warmup_cycle            0                       # Cycle when the warmup percentage was hit.
system.cpu.dtb_walker_cache.tags.tag_accesses            0                       # Number of tag accesses
system.cpu.dtb_walker_cache.tags.data_accesses            0                       # Number of data accesses
system.cpu.dcache.pwrStateResidencyTicks::UNDEFINED 371686817721500                       # Cumulative time (in ticks) in various power states
system.cpu.dcache.demand_hits::.cpu.data            4                       # number of demand (read+write) hits
system.cpu.dcache.demand_hits::.switch_cpus.data     36785870                       # number of demand (read+write) hits
system.cpu.dcache.demand_hits::total         36785874                       # number of demand (read+write) hits
system.cpu.dcache.overall_hits::.cpu.data            4                       # number of overall hits
system.cpu.dcache.overall_hits::.switch_cpus.data     36842288                       # number of overall hits
system.cpu.dcache.overall_hits::total        36842292                       # number of overall hits
system.cpu.dcache.demand_misses::.cpu.data            4                       # number of demand (read+write) misses
system.cpu.dcache.demand_misses::.switch_cpus.data       665948                       # number of demand (read+write) misses
system.cpu.dcache.demand_misses::total         665952                       # number of demand (read+write) misses
system.cpu.dcache.overall_misses::.cpu.data            4                       # number of overall misses
system.cpu.dcache.overall_misses::.switch_cpus.data       683066                       # number of overall misses
system.cpu.dcache.overall_misses::total        683070                       # number of overall misses
system.cpu.dcache.demand_miss_latency::.switch_cpus.data  41926019872                       # number of demand (read+write) miss cycles
system.cpu.dcache.demand_miss_latency::total  41926019872                       # number of demand (read+write) miss cycles
system.cpu.dcache.overall_miss_latency::.switch_cpus.data  41926019872                       # number of overall miss cycles
system.cpu.dcache.overall_miss_latency::total  41926019872                       # number of overall miss cycles
system.cpu.dcache.demand_accesses::.cpu.data            8                       # number of demand (read+write) accesses
system.cpu.dcache.demand_accesses::.switch_cpus.data     37451818                       # number of demand (read+write) accesses
system.cpu.dcache.demand_accesses::total     37451826                       # number of demand (read+write) accesses
system.cpu.dcache.overall_accesses::.cpu.data            8                       # number of overall (read+write) accesses
system.cpu.dcache.overall_accesses::.switch_cpus.data     37525354                       # number of overall (read+write) accesses
system.cpu.dcache.overall_accesses::total     37525362                       # number of overall (read+write) accesses
system.cpu.dcache.demand_miss_rate::.cpu.data     0.500000                       # miss rate for demand accesses
system.cpu.dcache.demand_miss_rate::.switch_cpus.data     0.017781                       # miss rate for demand accesses
system.cpu.dcache.demand_miss_rate::total     0.017782                       # miss rate for demand accesses
system.cpu.dcache.overall_miss_rate::.cpu.data     0.500000                       # miss rate for overall accesses
system.cpu.dcache.overall_miss_rate::.switch_cpus.data     0.018203                       # miss rate for overall accesses
system.cpu.dcache.overall_miss_rate::total     0.018203                       # miss rate for overall accesses
system.cpu.dcache.demand_avg_miss_latency::.switch_cpus.data 62956.897343                       # average overall miss latency
system.cpu.dcache.demand_avg_miss_latency::total 62956.519197                       # average overall miss latency
system.cpu.dcache.overall_avg_miss_latency::.switch_cpus.data 61379.163759                       # average overall miss latency
system.cpu.dcache.overall_avg_miss_latency::total 61378.804328                       # average overall miss latency
system.cpu.dcache.blocked_cycles::no_mshrs      7729099                       # number of cycles access was blocked
system.cpu.dcache.blocked_cycles::no_targets          918                       # number of cycles access was blocked
system.cpu.dcache.blocked::no_mshrs            131416                       # number of cycles access was blocked
system.cpu.dcache.blocked::no_targets               6                       # number of cycles access was blocked
system.cpu.dcache.avg_blocked_cycles::no_mshrs    58.813988                       # average number of cycles each access was blocked
system.cpu.dcache.avg_blocked_cycles::no_targets          153                       # average number of cycles each access was blocked
system.cpu.dcache.writebacks::.writebacks       258677                       # number of writebacks
system.cpu.dcache.writebacks::total            258677                       # number of writebacks
system.cpu.dcache.demand_mshr_hits::.switch_cpus.data       219872                       # number of demand (read+write) MSHR hits
system.cpu.dcache.demand_mshr_hits::total       219872                       # number of demand (read+write) MSHR hits
system.cpu.dcache.overall_mshr_hits::.switch_cpus.data       219872                       # number of overall MSHR hits
system.cpu.dcache.overall_mshr_hits::total       219872                       # number of overall MSHR hits
system.cpu.dcache.demand_mshr_misses::.switch_cpus.data       446076                       # number of demand (read+write) MSHR misses
system.cpu.dcache.demand_mshr_misses::total       446076                       # number of demand (read+write) MSHR misses
system.cpu.dcache.overall_mshr_misses::.switch_cpus.data       451519                       # number of overall MSHR misses
system.cpu.dcache.overall_mshr_misses::total       451519                       # number of overall MSHR misses
system.cpu.dcache.demand_mshr_miss_latency::.switch_cpus.data  29578090372                       # number of demand (read+write) MSHR miss cycles
system.cpu.dcache.demand_mshr_miss_latency::total  29578090372                       # number of demand (read+write) MSHR miss cycles
system.cpu.dcache.overall_mshr_miss_latency::.switch_cpus.data  30034820872                       # number of overall MSHR miss cycles
system.cpu.dcache.overall_mshr_miss_latency::total  30034820872                       # number of overall MSHR miss cycles
system.cpu.dcache.demand_mshr_miss_rate::.switch_cpus.data     0.011911                       # mshr miss rate for demand accesses
system.cpu.dcache.demand_mshr_miss_rate::total     0.011911                       # mshr miss rate for demand accesses
system.cpu.dcache.overall_mshr_miss_rate::.switch_cpus.data     0.012032                       # mshr miss rate for overall accesses
system.cpu.dcache.overall_mshr_miss_rate::total     0.012032                       # mshr miss rate for overall accesses
system.cpu.dcache.demand_avg_mshr_miss_latency::.switch_cpus.data 66307.289278                       # average overall mshr miss latency
system.cpu.dcache.demand_avg_mshr_miss_latency::total 66307.289278                       # average overall mshr miss latency
system.cpu.dcache.overall_avg_mshr_miss_latency::.switch_cpus.data 66519.506094                       # average overall mshr miss latency
system.cpu.dcache.overall_avg_mshr_miss_latency::total 66519.506094                       # average overall mshr miss latency
system.cpu.dcache.replacements                 450497                       # number of replacements
system.cpu.dcache.ReadReq_hits::.cpu.data            4                       # number of ReadReq hits
system.cpu.dcache.ReadReq_hits::.switch_cpus.data     27931259                       # number of ReadReq hits
system.cpu.dcache.ReadReq_hits::total        27931263                       # number of ReadReq hits
system.cpu.dcache.ReadReq_misses::.cpu.data            4                       # number of ReadReq misses
system.cpu.dcache.ReadReq_misses::.switch_cpus.data       537842                       # number of ReadReq misses
system.cpu.dcache.ReadReq_misses::total        537846                       # number of ReadReq misses
system.cpu.dcache.ReadReq_miss_latency::.switch_cpus.data  32891663500                       # number of ReadReq miss cycles
system.cpu.dcache.ReadReq_miss_latency::total  32891663500                       # number of ReadReq miss cycles
system.cpu.dcache.ReadReq_accesses::.cpu.data            8                       # number of ReadReq accesses(hits+misses)
system.cpu.dcache.ReadReq_accesses::.switch_cpus.data     28469101                       # number of ReadReq accesses(hits+misses)
system.cpu.dcache.ReadReq_accesses::total     28469109                       # number of ReadReq accesses(hits+misses)
system.cpu.dcache.ReadReq_miss_rate::.cpu.data     0.500000                       # miss rate for ReadReq accesses
system.cpu.dcache.ReadReq_miss_rate::.switch_cpus.data     0.018892                       # miss rate for ReadReq accesses
system.cpu.dcache.ReadReq_miss_rate::total     0.018892                       # miss rate for ReadReq accesses
system.cpu.dcache.ReadReq_avg_miss_latency::.switch_cpus.data 61154.880987                       # average ReadReq miss latency
system.cpu.dcache.ReadReq_avg_miss_latency::total 61154.426174                       # average ReadReq miss latency
system.cpu.dcache.ReadReq_mshr_hits::.switch_cpus.data       219792                       # number of ReadReq MSHR hits
system.cpu.dcache.ReadReq_mshr_hits::total       219792                       # number of ReadReq MSHR hits
system.cpu.dcache.ReadReq_mshr_misses::.switch_cpus.data       318050                       # number of ReadReq MSHR misses
system.cpu.dcache.ReadReq_mshr_misses::total       318050                       # number of ReadReq MSHR misses
system.cpu.dcache.ReadReq_mshr_miss_latency::.switch_cpus.data  20672676500                       # number of ReadReq MSHR miss cycles
system.cpu.dcache.ReadReq_mshr_miss_latency::total  20672676500                       # number of ReadReq MSHR miss cycles
system.cpu.dcache.ReadReq_mshr_miss_rate::.switch_cpus.data     0.011172                       # mshr miss rate for ReadReq accesses
system.cpu.dcache.ReadReq_mshr_miss_rate::total     0.011172                       # mshr miss rate for ReadReq accesses
system.cpu.dcache.ReadReq_avg_mshr_miss_latency::.switch_cpus.data 64998.196824                       # average ReadReq mshr miss latency
system.cpu.dcache.ReadReq_avg_mshr_miss_latency::total 64998.196824                       # average ReadReq mshr miss latency
system.cpu.dcache.WriteReq_hits::.switch_cpus.data      8854611                       # number of WriteReq hits
system.cpu.dcache.WriteReq_hits::total        8854611                       # number of WriteReq hits
system.cpu.dcache.WriteReq_misses::.switch_cpus.data       128106                       # number of WriteReq misses
system.cpu.dcache.WriteReq_misses::total       128106                       # number of WriteReq misses
system.cpu.dcache.WriteReq_miss_latency::.switch_cpus.data   9034356372                       # number of WriteReq miss cycles
system.cpu.dcache.WriteReq_miss_latency::total   9034356372                       # number of WriteReq miss cycles
system.cpu.dcache.WriteReq_accesses::.switch_cpus.data      8982717                       # number of WriteReq accesses(hits+misses)
system.cpu.dcache.WriteReq_accesses::total      8982717                       # number of WriteReq accesses(hits+misses)
system.cpu.dcache.WriteReq_miss_rate::.switch_cpus.data     0.014261                       # miss rate for WriteReq accesses
system.cpu.dcache.WriteReq_miss_rate::total     0.014261                       # miss rate for WriteReq accesses
system.cpu.dcache.WriteReq_avg_miss_latency::.switch_cpus.data 70522.507705                       # average WriteReq miss latency
system.cpu.dcache.WriteReq_avg_miss_latency::total 70522.507705                       # average WriteReq miss latency
system.cpu.dcache.WriteReq_mshr_hits::.switch_cpus.data           80                       # number of WriteReq MSHR hits
system.cpu.dcache.WriteReq_mshr_hits::total           80                       # number of WriteReq MSHR hits
system.cpu.dcache.WriteReq_mshr_misses::.switch_cpus.data       128026                       # number of WriteReq MSHR misses
system.cpu.dcache.WriteReq_mshr_misses::total       128026                       # number of WriteReq MSHR misses
system.cpu.dcache.WriteReq_mshr_miss_latency::.switch_cpus.data   8905413872                       # number of WriteReq MSHR miss cycles
system.cpu.dcache.WriteReq_mshr_miss_latency::total   8905413872                       # number of WriteReq MSHR miss cycles
system.cpu.dcache.WriteReq_mshr_miss_rate::.switch_cpus.data     0.014252                       # mshr miss rate for WriteReq accesses
system.cpu.dcache.WriteReq_mshr_miss_rate::total     0.014252                       # mshr miss rate for WriteReq accesses
system.cpu.dcache.WriteReq_avg_mshr_miss_latency::.switch_cpus.data 69559.416618                       # average WriteReq mshr miss latency
system.cpu.dcache.WriteReq_avg_mshr_miss_latency::total 69559.416618                       # average WriteReq mshr miss latency
system.cpu.dcache.SoftPFReq_hits::.switch_cpus.data        56418                       # number of SoftPFReq hits
system.cpu.dcache.SoftPFReq_hits::total         56418                       # number of SoftPFReq hits
system.cpu.dcache.SoftPFReq_misses::.switch_cpus.data        17118                       # number of SoftPFReq misses
system.cpu.dcache.SoftPFReq_misses::total        17118                       # number of SoftPFReq misses
system.cpu.dcache.SoftPFReq_accesses::.switch_cpus.data        73536                       # number of SoftPFReq accesses(hits+misses)
system.cpu.dcache.SoftPFReq_accesses::total        73536                       # number of SoftPFReq accesses(hits+misses)
system.cpu.dcache.SoftPFReq_miss_rate::.switch_cpus.data     0.232784                       # miss rate for SoftPFReq accesses
system.cpu.dcache.SoftPFReq_miss_rate::total     0.232784                       # miss rate for SoftPFReq accesses
system.cpu.dcache.SoftPFReq_mshr_misses::.switch_cpus.data         5443                       # number of SoftPFReq MSHR misses
system.cpu.dcache.SoftPFReq_mshr_misses::total         5443                       # number of SoftPFReq MSHR misses
system.cpu.dcache.SoftPFReq_mshr_miss_latency::.switch_cpus.data    456730500                       # number of SoftPFReq MSHR miss cycles
system.cpu.dcache.SoftPFReq_mshr_miss_latency::total    456730500                       # number of SoftPFReq MSHR miss cycles
system.cpu.dcache.SoftPFReq_mshr_miss_rate::.switch_cpus.data     0.074018                       # mshr miss rate for SoftPFReq accesses
system.cpu.dcache.SoftPFReq_mshr_miss_rate::total     0.074018                       # mshr miss rate for SoftPFReq accesses
system.cpu.dcache.SoftPFReq_avg_mshr_miss_latency::.switch_cpus.data 83911.537755                       # average SoftPFReq mshr miss latency
system.cpu.dcache.SoftPFReq_avg_mshr_miss_latency::total 83911.537755                       # average SoftPFReq mshr miss latency
system.cpu.dcache.tags.pwrStateResidencyTicks::UNDEFINED 371686817721500                       # Cumulative time (in ticks) in various power states
system.cpu.dcache.tags.tagsinuse             0.070676                       # Cycle average of tags in use
system.cpu.dcache.tags.total_refs            37293815                       # Total number of references to valid blocks.
system.cpu.dcache.tags.sampled_refs            451521                       # Sample count of references to valid blocks.
system.cpu.dcache.tags.avg_refs             82.595970                       # Average number of references to valid blocks.
system.cpu.dcache.tags.warmup_cycle      371661094883500                       # Cycle when the warmup percentage was hit.
system.cpu.dcache.tags.occ_blocks::.cpu.data     0.000004                       # Average occupied blocks per requestor
system.cpu.dcache.tags.occ_blocks::.switch_cpus.data     0.070672                       # Average occupied blocks per requestor
system.cpu.dcache.tags.occ_percent::.cpu.data     0.000000                       # Average percentage of cache occupancy
system.cpu.dcache.tags.occ_percent::.switch_cpus.data     0.000069                       # Average percentage of cache occupancy
system.cpu.dcache.tags.occ_percent::total     0.000069                       # Average percentage of cache occupancy
system.cpu.dcache.tags.occ_task_id_blocks::1024         1024                       # Occupied blocks per task id
system.cpu.dcache.tags.age_task_id_blocks_1024::0          147                       # Occupied blocks per task id
system.cpu.dcache.tags.age_task_id_blocks_1024::1          813                       # Occupied blocks per task id
system.cpu.dcache.tags.age_task_id_blocks_1024::2           59                       # Occupied blocks per task id
system.cpu.dcache.tags.age_task_id_blocks_1024::3            5                       # Occupied blocks per task id
system.cpu.dcache.tags.occ_task_id_percent::1024            1                       # Percentage of cache occupancy per task id
system.cpu.dcache.tags.tag_accesses          75502245                       # Number of tag accesses
system.cpu.dcache.tags.data_accesses         75502245                       # Number of data accesses

---------- End Simulation Statistics   ----------
