
---------- Begin Simulation Statistics ----------
final_tick                               81946806284500                       # Number of ticks from beginning of simulation (restored from checkpoints and never reset)
host_inst_rate                                 842138                       # Simulator instruction rate (inst/s)
host_mem_usage                                 789956                       # Number of bytes of host memory used
host_op_rate                                  1350722                       # Simulator op (including micro ops) rate (op/s)
host_seconds                                    11.87                       # Real time elapsed on the host
host_tick_rate                              820059900                       # Simulator tick rate (ticks/s)
sim_freq                                 1000000000000                       # Frequency of simulated ticks
sim_insts                                    10000001                       # Number of instructions simulated
sim_ops                                      16039468                       # Number of ops (including micro ops) simulated
sim_seconds                                  0.009738                       # Number of seconds simulated
sim_ticks                                  9738027000                       # Number of ticks simulated
system.cpu.branchPred.BTBCorrect                    0                       # Number of correct BTB predictions (this stat may not work properly.
system.cpu.branchPred.BTBHitPct                   nan                       # BTB Hit Percentage
system.cpu.branchPred.BTBHits                       0                       # Number of BTB hits
system.cpu.branchPred.BTBLookups                    0                       # Number of BTB lookups
system.cpu.branchPred.RASInCorrect                  0                       # Number of incorrect RAS predictions.
system.cpu.branchPred.condIncorrect                 0                       # Number of conditional branches incorrect
system.cpu.branchPred.condPredicted                 0                       # Number of conditional branches predicted
system.cpu.branchPred.indirectHits                  0                       # Number of indirect target hits.
system.cpu.branchPred.indirectLookups               0                       # Number of indirect predictor lookups.
system.cpu.branchPred.indirectMisses                0                       # Number of indirect misses.
system.cpu.branchPred.lookups                       0                       # Number of BP lookups
system.cpu.branchPred.usedRAS                       0                       # Number of times the RAS was used to get a target.
system.cpu.branchPredindirectMispredicted            0                       # Number of mispredicted indirect branches.
system.cpu.cc_regfile_reads                         5                       # number of cc regfile reads
system.cpu.commit.amos                              0                       # Number of atomic instructions committed
system.cpu.commit.branches                          0                       # Number of branches committed
system.cpu.commit.bw_lim_events                     0                       # number cycles where commit BW limit reached
system.cpu.commit.commitSquashedInsts              17                       # The number of squashed insts skipped by commit
system.cpu.commit.committedInsts                    1                       # Number of instructions committed
system.cpu.commit.committedOps                      1                       # Number of ops (including micro ops) committed
system.cpu.commit.committed_per_cycle::samples           46                       # Number of insts commited each cycle
system.cpu.commit.committed_per_cycle::mean     0.021739                       # Number of insts commited each cycle
system.cpu.commit.committed_per_cycle::stdev     0.147442                       # Number of insts commited each cycle
system.cpu.commit.committed_per_cycle::underflows            0      0.00%      0.00% # Number of insts commited each cycle
system.cpu.commit.committed_per_cycle::0           45     97.83%     97.83% # Number of insts commited each cycle
system.cpu.commit.committed_per_cycle::1            1      2.17%    100.00% # Number of insts commited each cycle
system.cpu.commit.committed_per_cycle::2            0      0.00%    100.00% # Number of insts commited each cycle
system.cpu.commit.committed_per_cycle::3            0      0.00%    100.00% # Number of insts commited each cycle
system.cpu.commit.committed_per_cycle::4            0      0.00%    100.00% # Number of insts commited each cycle
system.cpu.commit.committed_per_cycle::5            0      0.00%    100.00% # Number of insts commited each cycle
system.cpu.commit.committed_per_cycle::6            0      0.00%    100.00% # Number of insts commited each cycle
system.cpu.commit.committed_per_cycle::7            0      0.00%    100.00% # Number of insts commited each cycle
system.cpu.commit.committed_per_cycle::8            0      0.00%    100.00% # Number of insts commited each cycle
system.cpu.commit.committed_per_cycle::overflows            0      0.00%    100.00% # Number of insts commited each cycle
system.cpu.commit.committed_per_cycle::min_value            0                       # Number of insts commited each cycle
system.cpu.commit.committed_per_cycle::max_value            1                       # Number of insts commited each cycle
system.cpu.commit.committed_per_cycle::total           46                       # Number of insts commited each cycle
system.cpu.commit.fp_insts                          0                       # Number of committed floating point instructions.
system.cpu.commit.function_calls                    0                       # Number of function calls committed.
system.cpu.commit.int_insts                         1                       # Number of committed integer instructions.
system.cpu.commit.loads                             0                       # Number of loads committed
system.cpu.commit.membars                           0                       # Number of memory barriers committed
system.cpu.commit.op_class_0::No_OpClass            0      0.00%      0.00% # Class of committed instruction
system.cpu.commit.op_class_0::IntAlu                0      0.00%      0.00% # Class of committed instruction
system.cpu.commit.op_class_0::IntMult               0      0.00%      0.00% # Class of committed instruction
system.cpu.commit.op_class_0::IntDiv                0      0.00%      0.00% # Class of committed instruction
system.cpu.commit.op_class_0::FloatAdd              0      0.00%      0.00% # Class of committed instruction
system.cpu.commit.op_class_0::FloatCmp              0      0.00%      0.00% # Class of committed instruction
system.cpu.commit.op_class_0::FloatCvt              0      0.00%      0.00% # Class of committed instruction
system.cpu.commit.op_class_0::FloatMult             0      0.00%      0.00% # Class of committed instruction
system.cpu.commit.op_class_0::FloatMultAcc            0      0.00%      0.00% # Class of committed instruction
system.cpu.commit.op_class_0::FloatDiv              0      0.00%      0.00% # Class of committed instruction
system.cpu.commit.op_class_0::FloatMisc             0      0.00%      0.00% # Class of committed instruction
system.cpu.commit.op_class_0::FloatSqrt             0      0.00%      0.00% # Class of committed instruction
system.cpu.commit.op_class_0::SimdAdd               0      0.00%      0.00% # Class of committed instruction
system.cpu.commit.op_class_0::SimdAddAcc            0      0.00%      0.00% # Class of committed instruction
system.cpu.commit.op_class_0::SimdAlu               0      0.00%      0.00% # Class of committed instruction
system.cpu.commit.op_class_0::SimdCmp               0      0.00%      0.00% # Class of committed instruction
system.cpu.commit.op_class_0::SimdCvt               0      0.00%      0.00% # Class of committed instruction
system.cpu.commit.op_class_0::SimdMisc              0      0.00%      0.00% # Class of committed instruction
system.cpu.commit.op_class_0::SimdMult              0      0.00%      0.00% # Class of committed instruction
system.cpu.commit.op_class_0::SimdMultAcc            0      0.00%      0.00% # Class of committed instruction
system.cpu.commit.op_class_0::SimdShift             0      0.00%      0.00% # Class of committed instruction
system.cpu.commit.op_class_0::SimdShiftAcc            0      0.00%      0.00% # Class of committed instruction
system.cpu.commit.op_class_0::SimdDiv               0      0.00%      0.00% # Class of committed instruction
system.cpu.commit.op_class_0::SimdSqrt              0      0.00%      0.00% # Class of committed instruction
system.cpu.commit.op_class_0::SimdFloatAdd            0      0.00%      0.00% # Class of committed instruction
system.cpu.commit.op_class_0::SimdFloatAlu            0      0.00%      0.00% # Class of committed instruction
system.cpu.commit.op_class_0::SimdFloatCmp            0      0.00%      0.00% # Class of committed instruction
system.cpu.commit.op_class_0::SimdFloatCvt            0      0.00%      0.00% # Class of committed instruction
system.cpu.commit.op_class_0::SimdFloatDiv            0      0.00%      0.00% # Class of committed instruction
system.cpu.commit.op_class_0::SimdFloatMisc            0      0.00%      0.00% # Class of committed instruction
system.cpu.commit.op_class_0::SimdFloatMult            0      0.00%      0.00% # Class of committed instruction
system.cpu.commit.op_class_0::SimdFloatMultAcc            0      0.00%      0.00% # Class of committed instruction
system.cpu.commit.op_class_0::SimdFloatSqrt            0      0.00%      0.00% # Class of committed instruction
system.cpu.commit.op_class_0::SimdReduceAdd            0      0.00%      0.00% # Class of committed instruction
system.cpu.commit.op_class_0::SimdReduceAlu            0      0.00%      0.00% # Class of committed instruction
system.cpu.commit.op_class_0::SimdReduceCmp            0      0.00%      0.00% # Class of committed instruction
system.cpu.commit.op_class_0::SimdFloatReduceAdd            0      0.00%      0.00% # Class of committed instruction
system.cpu.commit.op_class_0::SimdFloatReduceCmp            0      0.00%      0.00% # Class of committed instruction
system.cpu.commit.op_class_0::SimdAes               0      0.00%      0.00% # Class of committed instruction
system.cpu.commit.op_class_0::SimdAesMix            0      0.00%      0.00% # Class of committed instruction
system.cpu.commit.op_class_0::SimdSha1Hash            0      0.00%      0.00% # Class of committed instruction
system.cpu.commit.op_class_0::SimdSha1Hash2            0      0.00%      0.00% # Class of committed instruction
system.cpu.commit.op_class_0::SimdSha256Hash            0      0.00%      0.00% # Class of committed instruction
system.cpu.commit.op_class_0::SimdSha256Hash2            0      0.00%      0.00% # Class of committed instruction
system.cpu.commit.op_class_0::SimdShaSigma2            0      0.00%      0.00% # Class of committed instruction
system.cpu.commit.op_class_0::SimdShaSigma3            0      0.00%      0.00% # Class of committed instruction
system.cpu.commit.op_class_0::SimdPredAlu            0      0.00%      0.00% # Class of committed instruction
system.cpu.commit.op_class_0::MemRead               0      0.00%      0.00% # Class of committed instruction
system.cpu.commit.op_class_0::MemWrite              1    100.00%    100.00% # Class of committed instruction
system.cpu.commit.op_class_0::FloatMemRead            0      0.00%    100.00% # Class of committed instruction
system.cpu.commit.op_class_0::FloatMemWrite            0      0.00%    100.00% # Class of committed instruction
system.cpu.commit.op_class_0::IprAccess             0      0.00%    100.00% # Class of committed instruction
system.cpu.commit.op_class_0::InstPrefetch            0      0.00%    100.00% # Class of committed instruction
system.cpu.commit.op_class_0::total                 1                       # Class of committed instruction
system.cpu.commit.refs                              1                       # Number of memory references committed
system.cpu.commit.swp_count                         0                       # Number of s/w prefetches committed
system.cpu.commit.vec_insts                         0                       # Number of committed Vector instructions.
system.cpu.committedInsts                           1                       # Number of Instructions Simulated
system.cpu.committedOps                             1                       # Number of Ops (including micro ops) Simulated
system.cpu.cpi                             556.000000                       # CPI: Cycles Per Instruction
system.cpu.cpi_total                       556.000000                       # CPI: Total CPI of All Threads
system.cpu.decode.BlockedCycles                     2                       # Number of cycles decode is blocked
system.cpu.decode.DecodedInsts                     18                       # Number of instructions handled by decode
system.cpu.decode.IdleCycles                       43                       # Number of cycles decode is idle
system.cpu.decode.SquashCycles                      1                       # Number of cycles decode is squashing
system.cpu.dtb.rdAccesses                           5                       # TLB accesses on read requests
system.cpu.dtb.rdMisses                             0                       # TLB misses on read requests
system.cpu.dtb.wrAccesses                           1                       # TLB accesses on write requests
system.cpu.dtb.wrMisses                             0                       # TLB misses on write requests
system.cpu.fetch.CacheLines                         2                       # Number of cache lines fetched
system.cpu.fetch.Cycles                             3                       # Number of cycles fetch has run and was not squashing or blocked
system.cpu.fetch.IcacheSquashes                     1                       # Number of outstanding Icache misses that were squashed
system.cpu.fetch.Insts                             13                       # Number of instructions fetch has processed
system.cpu.fetch.PendingDrainCycles                19                       # Number of cycles fetch has spent waiting on pipes to drain
system.cpu.fetch.SquashCycles                       1                       # Number of cycles fetch has spent squashing
system.cpu.fetch.branchRate                         0                       # Number of branch fetches per cycle
system.cpu.fetch.icacheStallCycles                 27                       # Number of cycles fetch is stalled on an Icache miss
system.cpu.fetch.rate                        0.023381                       # Number of inst fetches per cycle
system.cpu.fetch.rateDist::samples                 49                       # Number of instructions fetched each cycle (Total)
system.cpu.fetch.rateDist::mean              0.367347                       # Number of instructions fetched each cycle (Total)
system.cpu.fetch.rateDist::stdev             1.616244                       # Number of instructions fetched each cycle (Total)
system.cpu.fetch.rateDist::underflows               0      0.00%      0.00% # Number of instructions fetched each cycle (Total)
system.cpu.fetch.rateDist::0                       46     93.88%     93.88% # Number of instructions fetched each cycle (Total)
system.cpu.fetch.rateDist::1                        0      0.00%     93.88% # Number of instructions fetched each cycle (Total)
system.cpu.fetch.rateDist::2                        1      2.04%     95.92% # Number of instructions fetched each cycle (Total)
system.cpu.fetch.rateDist::3                        0      0.00%     95.92% # Number of instructions fetched each cycle (Total)
system.cpu.fetch.rateDist::4                        0      0.00%     95.92% # Number of instructions fetched each cycle (Total)
system.cpu.fetch.rateDist::5                        0      0.00%     95.92% # Number of instructions fetched each cycle (Total)
system.cpu.fetch.rateDist::6                        0      0.00%     95.92% # Number of instructions fetched each cycle (Total)
system.cpu.fetch.rateDist::7                        0      0.00%     95.92% # Number of instructions fetched each cycle (Total)
system.cpu.fetch.rateDist::8                        2      4.08%    100.00% # Number of instructions fetched each cycle (Total)
system.cpu.fetch.rateDist::overflows                0      0.00%    100.00% # Number of instructions fetched each cycle (Total)
system.cpu.fetch.rateDist::min_value                0                       # Number of instructions fetched each cycle (Total)
system.cpu.fetch.rateDist::max_value                8                       # Number of instructions fetched each cycle (Total)
system.cpu.fetch.rateDist::total                   49                       # Number of instructions fetched each cycle (Total)
system.cpu.fp_regfile_reads                        56                       # number of floating regfile reads
system.cpu.idleCycles                             507                       # Total number of cycles that the CPU has spent unscheduled due to idling
system.cpu.iew.branchMispredicts                    0                       # Number of branch mispredicts detected at execute
system.cpu.iew.exec_branches                        0                       # Number of branches executed
system.cpu.iew.exec_nop                             0                       # number of nop insts executed
system.cpu.iew.exec_rate                     0.012590                       # Inst execution rate
system.cpu.iew.exec_refs                            6                       # number of memory reference insts executed
system.cpu.iew.exec_stores                          1                       # Number of stores executed
system.cpu.iew.exec_swp                             0                       # number of swp insts executed
system.cpu.iew.iewBlockCycles                       2                       # Number of cycles IEW is blocking
system.cpu.iew.iewDispLoadInsts                     6                       # Number of dispatched load instructions
system.cpu.iew.iewDispNonSpecInsts                  0                       # Number of dispatched non-speculative instructions
system.cpu.iew.iewDispSquashedInsts                 0                       # Number of squashed instructions skipped by dispatch
system.cpu.iew.iewDispStoreInsts                    3                       # Number of dispatched store instructions
system.cpu.iew.iewDispatchedInsts                  18                       # Number of instructions dispatched to IQ
system.cpu.iew.iewExecLoadInsts                     5                       # Number of load instructions executed
system.cpu.iew.iewExecSquashedInsts                 0                       # Number of squashed instructions skipped in execute
system.cpu.iew.iewExecutedInsts                     7                       # Number of executed instructions
system.cpu.iew.iewIQFullEvents                      0                       # Number of times the IQ has become full, causing a stall
system.cpu.iew.iewIdleCycles                        0                       # Number of cycles IEW is idle
system.cpu.iew.iewLSQFullEvents                     0                       # Number of times the LSQ has become full, causing a stall
system.cpu.iew.iewSquashCycles                      1                       # Number of cycles IEW is squashing
system.cpu.iew.iewUnblockCycles                     0                       # Number of cycles IEW is unblocking
system.cpu.iew.lsq.thread0.blockedLoads             0                       # Number of blocked loads due to partial load-store forwarding
system.cpu.iew.lsq.thread0.cacheBlocked             1                       # Number of times an access to memory failed due to the cache being blocked
system.cpu.iew.lsq.thread0.forwLoads                0                       # Number of loads that had data forwarded from stores
system.cpu.iew.lsq.thread0.ignoredResponses            0                       # Number of memory responses ignored because the instruction is squashed
system.cpu.iew.lsq.thread0.invAddrLoads             0                       # Number of loads ignored due to an invalid address
system.cpu.iew.lsq.thread0.invAddrSwpfs             0                       # Number of software prefetches ignored due to an invalid address
system.cpu.iew.lsq.thread0.memOrderViolation            0                       # Number of memory ordering violations
system.cpu.iew.lsq.thread0.rescheduledLoads            0                       # Number of loads that were rescheduled
system.cpu.iew.lsq.thread0.squashedLoads            6                       # Number of loads squashed
system.cpu.iew.lsq.thread0.squashedStores            2                       # Number of stores squashed
system.cpu.iew.memOrderViolationEvents              0                       # Number of memory order violations
system.cpu.iew.predictedNotTakenIncorrect            0                       # Number of branches that were predicted not taken incorrectly
system.cpu.iew.predictedTakenIncorrect              0                       # Number of branches that were predicted taken incorrectly
system.cpu.iew.wb_consumers                         1                       # num instructions consuming a value
system.cpu.iew.wb_count                             2                       # cumulative count of insts written-back
system.cpu.iew.wb_fanout                            1                       # average fanout of values written-back
system.cpu.iew.wb_producers                         1                       # num instructions producing a value
system.cpu.iew.wb_rate                       0.003597                       # insts written-back per cycle
system.cpu.iew.wb_sent                              2                       # cumulative count of insts sent to commit
system.cpu.int_regfile_reads                       51                       # number of integer regfile reads
system.cpu.int_regfile_writes                       1                       # number of integer regfile writes
system.cpu.ipc                               0.001799                       # IPC: Instructions Per Cycle
system.cpu.ipc_total                         0.001799                       # IPC: Total IPC of All Threads
system.cpu.iq.FU_type_0::No_OpClass                 0      0.00%      0.00% # Type of FU issued
system.cpu.iq.FU_type_0::IntAlu                     1     14.29%     14.29% # Type of FU issued
system.cpu.iq.FU_type_0::IntMult                    0      0.00%     14.29% # Type of FU issued
system.cpu.iq.FU_type_0::IntDiv                     0      0.00%     14.29% # Type of FU issued
system.cpu.iq.FU_type_0::FloatAdd                   0      0.00%     14.29% # Type of FU issued
system.cpu.iq.FU_type_0::FloatCmp                   0      0.00%     14.29% # Type of FU issued
system.cpu.iq.FU_type_0::FloatCvt                   0      0.00%     14.29% # Type of FU issued
system.cpu.iq.FU_type_0::FloatMult                  0      0.00%     14.29% # Type of FU issued
system.cpu.iq.FU_type_0::FloatMultAcc               0      0.00%     14.29% # Type of FU issued
system.cpu.iq.FU_type_0::FloatDiv                   0      0.00%     14.29% # Type of FU issued
system.cpu.iq.FU_type_0::FloatMisc                  0      0.00%     14.29% # Type of FU issued
system.cpu.iq.FU_type_0::FloatSqrt                  0      0.00%     14.29% # Type of FU issued
system.cpu.iq.FU_type_0::SimdAdd                    0      0.00%     14.29% # Type of FU issued
system.cpu.iq.FU_type_0::SimdAddAcc                 0      0.00%     14.29% # Type of FU issued
system.cpu.iq.FU_type_0::SimdAlu                    0      0.00%     14.29% # Type of FU issued
system.cpu.iq.FU_type_0::SimdCmp                    0      0.00%     14.29% # Type of FU issued
system.cpu.iq.FU_type_0::SimdCvt                    0      0.00%     14.29% # Type of FU issued
system.cpu.iq.FU_type_0::SimdMisc                   0      0.00%     14.29% # Type of FU issued
system.cpu.iq.FU_type_0::SimdMult                   0      0.00%     14.29% # Type of FU issued
system.cpu.iq.FU_type_0::SimdMultAcc                0      0.00%     14.29% # Type of FU issued
system.cpu.iq.FU_type_0::SimdShift                  0      0.00%     14.29% # Type of FU issued
system.cpu.iq.FU_type_0::SimdShiftAcc               0      0.00%     14.29% # Type of FU issued
system.cpu.iq.FU_type_0::SimdDiv                    0      0.00%     14.29% # Type of FU issued
system.cpu.iq.FU_type_0::SimdSqrt                   0      0.00%     14.29% # Type of FU issued
system.cpu.iq.FU_type_0::SimdFloatAdd               0      0.00%     14.29% # Type of FU issued
system.cpu.iq.FU_type_0::SimdFloatAlu               0      0.00%     14.29% # Type of FU issued
system.cpu.iq.FU_type_0::SimdFloatCmp               0      0.00%     14.29% # Type of FU issued
system.cpu.iq.FU_type_0::SimdFloatCvt               0      0.00%     14.29% # Type of FU issued
system.cpu.iq.FU_type_0::SimdFloatDiv               0      0.00%     14.29% # Type of FU issued
system.cpu.iq.FU_type_0::SimdFloatMisc              0      0.00%     14.29% # Type of FU issued
system.cpu.iq.FU_type_0::SimdFloatMult              0      0.00%     14.29% # Type of FU issued
system.cpu.iq.FU_type_0::SimdFloatMultAcc            0      0.00%     14.29% # Type of FU issued
system.cpu.iq.FU_type_0::SimdFloatSqrt              0      0.00%     14.29% # Type of FU issued
system.cpu.iq.FU_type_0::SimdReduceAdd              0      0.00%     14.29% # Type of FU issued
system.cpu.iq.FU_type_0::SimdReduceAlu              0      0.00%     14.29% # Type of FU issued
system.cpu.iq.FU_type_0::SimdReduceCmp              0      0.00%     14.29% # Type of FU issued
system.cpu.iq.FU_type_0::SimdFloatReduceAdd            0      0.00%     14.29% # Type of FU issued
system.cpu.iq.FU_type_0::SimdFloatReduceCmp            0      0.00%     14.29% # Type of FU issued
system.cpu.iq.FU_type_0::SimdAes                    0      0.00%     14.29% # Type of FU issued
system.cpu.iq.FU_type_0::SimdAesMix                 0      0.00%     14.29% # Type of FU issued
system.cpu.iq.FU_type_0::SimdSha1Hash               0      0.00%     14.29% # Type of FU issued
system.cpu.iq.FU_type_0::SimdSha1Hash2              0      0.00%     14.29% # Type of FU issued
system.cpu.iq.FU_type_0::SimdSha256Hash             0      0.00%     14.29% # Type of FU issued
system.cpu.iq.FU_type_0::SimdSha256Hash2            0      0.00%     14.29% # Type of FU issued
system.cpu.iq.FU_type_0::SimdShaSigma2              0      0.00%     14.29% # Type of FU issued
system.cpu.iq.FU_type_0::SimdShaSigma3              0      0.00%     14.29% # Type of FU issued
system.cpu.iq.FU_type_0::SimdPredAlu                0      0.00%     14.29% # Type of FU issued
system.cpu.iq.FU_type_0::MemRead                    5     71.43%     85.71% # Type of FU issued
system.cpu.iq.FU_type_0::MemWrite                   1     14.29%    100.00% # Type of FU issued
system.cpu.iq.FU_type_0::FloatMemRead               0      0.00%    100.00% # Type of FU issued
system.cpu.iq.FU_type_0::FloatMemWrite              0      0.00%    100.00% # Type of FU issued
system.cpu.iq.FU_type_0::IprAccess                  0      0.00%    100.00% # Type of FU issued
system.cpu.iq.FU_type_0::InstPrefetch               0      0.00%    100.00% # Type of FU issued
system.cpu.iq.FU_type_0::total                      7                       # Type of FU issued
system.cpu.iq.fp_alu_accesses                       0                       # Number of floating point alu accesses
system.cpu.iq.fp_inst_queue_reads                   0                       # Number of floating instruction queue reads
system.cpu.iq.fp_inst_queue_wakeup_accesses            0                       # Number of floating instruction queue wakeup accesses
system.cpu.iq.fp_inst_queue_writes                  0                       # Number of floating instruction queue writes
system.cpu.iq.fu_busy_cnt                           0                       # FU busy when requested
system.cpu.iq.fu_busy_rate                          0                       # FU busy rate (busy events/executed inst)
system.cpu.iq.fu_full::No_OpClass                   0                       # attempts to use FU when none available
system.cpu.iq.fu_full::IntAlu                       0                       # attempts to use FU when none available
system.cpu.iq.fu_full::IntMult                      0                       # attempts to use FU when none available
system.cpu.iq.fu_full::IntDiv                       0                       # attempts to use FU when none available
system.cpu.iq.fu_full::FloatAdd                     0                       # attempts to use FU when none available
system.cpu.iq.fu_full::FloatCmp                     0                       # attempts to use FU when none available
system.cpu.iq.fu_full::FloatCvt                     0                       # attempts to use FU when none available
system.cpu.iq.fu_full::FloatMult                    0                       # attempts to use FU when none available
system.cpu.iq.fu_full::FloatMultAcc                 0                       # attempts to use FU when none available
system.cpu.iq.fu_full::FloatDiv                     0                       # attempts to use FU when none available
system.cpu.iq.fu_full::FloatMisc                    0                       # attempts to use FU when none available
system.cpu.iq.fu_full::FloatSqrt                    0                       # attempts to use FU when none available
system.cpu.iq.fu_full::SimdAdd                      0                       # attempts to use FU when none available
system.cpu.iq.fu_full::SimdAddAcc                   0                       # attempts to use FU when none available
system.cpu.iq.fu_full::SimdAlu                      0                       # attempts to use FU when none available
system.cpu.iq.fu_full::SimdCmp                      0                       # attempts to use FU when none available
system.cpu.iq.fu_full::SimdCvt                      0                       # attempts to use FU when none available
system.cpu.iq.fu_full::SimdMisc                     0                       # attempts to use FU when none available
system.cpu.iq.fu_full::SimdMult                     0                       # attempts to use FU when none available
system.cpu.iq.fu_full::SimdMultAcc                  0                       # attempts to use FU when none available
system.cpu.iq.fu_full::SimdShift                    0                       # attempts to use FU when none available
system.cpu.iq.fu_full::SimdShiftAcc                 0                       # attempts to use FU when none available
system.cpu.iq.fu_full::SimdDiv                      0                       # attempts to use FU when none available
system.cpu.iq.fu_full::SimdSqrt                     0                       # attempts to use FU when none available
system.cpu.iq.fu_full::SimdFloatAdd                 0                       # attempts to use FU when none available
system.cpu.iq.fu_full::SimdFloatAlu                 0                       # attempts to use FU when none available
system.cpu.iq.fu_full::SimdFloatCmp                 0                       # attempts to use FU when none available
system.cpu.iq.fu_full::SimdFloatCvt                 0                       # attempts to use FU when none available
system.cpu.iq.fu_full::SimdFloatDiv                 0                       # attempts to use FU when none available
system.cpu.iq.fu_full::SimdFloatMisc                0                       # attempts to use FU when none available
system.cpu.iq.fu_full::SimdFloatMult                0                       # attempts to use FU when none available
system.cpu.iq.fu_full::SimdFloatMultAcc             0                       # attempts to use FU when none available
system.cpu.iq.fu_full::SimdFloatSqrt                0                       # attempts to use FU when none available
system.cpu.iq.fu_full::SimdReduceAdd                0                       # attempts to use FU when none available
system.cpu.iq.fu_full::SimdReduceAlu                0                       # attempts to use FU when none available
system.cpu.iq.fu_full::SimdReduceCmp                0                       # attempts to use FU when none available
system.cpu.iq.fu_full::SimdFloatReduceAdd            0                       # attempts to use FU when none available
system.cpu.iq.fu_full::SimdFloatReduceCmp            0                       # attempts to use FU when none available
system.cpu.iq.fu_full::SimdAes                      0                       # attempts to use FU when none available
system.cpu.iq.fu_full::SimdAesMix                   0                       # attempts to use FU when none available
system.cpu.iq.fu_full::SimdSha1Hash                 0                       # attempts to use FU when none available
system.cpu.iq.fu_full::SimdSha1Hash2                0                       # attempts to use FU when none available
system.cpu.iq.fu_full::SimdSha256Hash               0                       # attempts to use FU when none available
system.cpu.iq.fu_full::SimdSha256Hash2              0                       # attempts to use FU when none available
system.cpu.iq.fu_full::SimdShaSigma2                0                       # attempts to use FU when none available
system.cpu.iq.fu_full::SimdShaSigma3                0                       # attempts to use FU when none available
system.cpu.iq.fu_full::SimdPredAlu                  0                       # attempts to use FU when none available
system.cpu.iq.fu_full::MemRead                      0                       # attempts to use FU when none available
system.cpu.iq.fu_full::MemWrite                     0                       # attempts to use FU when none available
system.cpu.iq.fu_full::FloatMemRead                 0                       # attempts to use FU when none available
system.cpu.iq.fu_full::FloatMemWrite                0                       # attempts to use FU when none available
system.cpu.iq.fu_full::IprAccess                    0                       # attempts to use FU when none available
system.cpu.iq.fu_full::InstPrefetch                 0                       # attempts to use FU when none available
system.cpu.iq.int_alu_accesses                      7                       # Number of integer alu accesses
system.cpu.iq.int_inst_queue_reads                 64                       # Number of integer instruction queue reads
system.cpu.iq.int_inst_queue_wakeup_accesses            2                       # Number of integer instruction queue wakeup accesses
system.cpu.iq.int_inst_queue_writes                35                       # Number of integer instruction queue writes
system.cpu.iq.iqInstsAdded                         18                       # Number of instructions added to the IQ (excludes non-spec)
system.cpu.iq.iqInstsIssued                         7                       # Number of instructions issued
system.cpu.iq.iqSquashedInstsExamined              17                       # Number of squashed instructions iterated over during squash; mainly for profiling
system.cpu.iq.iqSquashedInstsIssued                 1                       # Number of squashed instructions issued
system.cpu.iq.iqSquashedOperandsExamined           66                       # Number of squashed operands that are examined and possibly removed from graph
system.cpu.iq.issued_per_cycle::samples            49                       # Number of insts issued each cycle
system.cpu.iq.issued_per_cycle::mean         0.142857                       # Number of insts issued each cycle
system.cpu.iq.issued_per_cycle::stdev        0.645497                       # Number of insts issued each cycle
system.cpu.iq.issued_per_cycle::underflows            0      0.00%      0.00% # Number of insts issued each cycle
system.cpu.iq.issued_per_cycle::0                  46     93.88%     93.88% # Number of insts issued each cycle
system.cpu.iq.issued_per_cycle::1                   1      2.04%     95.92% # Number of insts issued each cycle
system.cpu.iq.issued_per_cycle::2                   1      2.04%     97.96% # Number of insts issued each cycle
system.cpu.iq.issued_per_cycle::3                   0      0.00%     97.96% # Number of insts issued each cycle
system.cpu.iq.issued_per_cycle::4                   1      2.04%    100.00% # Number of insts issued each cycle
system.cpu.iq.issued_per_cycle::5                   0      0.00%    100.00% # Number of insts issued each cycle
system.cpu.iq.issued_per_cycle::6                   0      0.00%    100.00% # Number of insts issued each cycle
system.cpu.iq.issued_per_cycle::7                   0      0.00%    100.00% # Number of insts issued each cycle
system.cpu.iq.issued_per_cycle::8                   0      0.00%    100.00% # Number of insts issued each cycle
system.cpu.iq.issued_per_cycle::overflows            0      0.00%    100.00% # Number of insts issued each cycle
system.cpu.iq.issued_per_cycle::min_value            0                       # Number of insts issued each cycle
system.cpu.iq.issued_per_cycle::max_value            4                       # Number of insts issued each cycle
system.cpu.iq.issued_per_cycle::total              49                       # Number of insts issued each cycle
system.cpu.iq.rate                           0.012590                       # Inst issue rate
system.cpu.iq.vec_alu_accesses                      0                       # Number of vector alu accesses
system.cpu.iq.vec_inst_queue_reads                  0                       # Number of vector instruction queue reads
system.cpu.iq.vec_inst_queue_wakeup_accesses            0                       # Number of vector instruction queue wakeup accesses
system.cpu.iq.vec_inst_queue_writes                 0                       # Number of vector instruction queue writes
system.cpu.itb.rdAccesses                           0                       # TLB accesses on read requests
system.cpu.itb.rdMisses                             0                       # TLB misses on read requests
system.cpu.itb.wrAccesses                           2                       # TLB accesses on write requests
system.cpu.itb.wrMisses                             0                       # TLB misses on write requests
system.cpu.memDep0.conflictingLoads                 0                       # Number of conflicting loads.
system.cpu.memDep0.conflictingStores                0                       # Number of conflicting stores.
system.cpu.memDep0.insertedLoads                    6                       # Number of loads inserted to the mem dependence unit.
system.cpu.memDep0.insertedStores                   3                       # Number of stores inserted to the mem dependence unit.
system.cpu.misc_regfile_reads                       7                       # number of misc regfile reads
system.cpu.numCycles                              556                       # number of cpu cycles simulated
system.cpu.numWorkItemsCompleted                    0                       # number of work items this cpu completed
system.cpu.numWorkItemsStarted                      0                       # number of work items this cpu started
system.cpu.rename.BlockCycles                       2                       # Number of cycles rename is blocking
system.cpu.rename.IdleCycles                       43                       # Number of cycles rename is idle
system.cpu.rename.RenameLookups                    70                       # Number of register rename lookups that rename has made
system.cpu.rename.RenamedInsts                     18                       # Number of instructions processed by rename
system.cpu.rename.RenamedOperands                  23                       # Number of destination operands rename has renamed
system.cpu.rename.RunCycles                         0                       # Number of cycles rename is running
system.cpu.rename.SquashCycles                      1                       # Number of cycles rename is squashing
system.cpu.rename.UndoneMaps                       23                       # Number of HB maps that are undone due to squashing
system.cpu.rename.int_rename_lookups               41                       # Number of integer rename lookups
system.cpu.rename.serializeStallCycles              0                       # count of cycles rename stalled for serializing inst
system.cpu.rename.serializingInsts                  0                       # count of serializing insts renamed
system.cpu.rename.skidInsts                         0                       # count of insts added to the skid buffer
system.cpu.rename.tempSerializingInsts              0                       # count of temporary serializing insts renamed
system.cpu.rob.rob_reads                           63                       # The number of ROB reads
system.cpu.rob.rob_writes                          39                       # The number of ROB writes
system.cpu.timesIdled                               4                       # Number of times that the entire CPU went into an idle state and unscheduled itself
system.cpu.workload.numSyscalls                     0                       # Number of system calls
system.membus.snoop_filter.hit_multi_requests            0                       # Number of requests hitting in the snoop filter with multiple (>1) holders of the requested data.
system.membus.snoop_filter.hit_multi_snoops            0                       # Number of snoops hitting in the snoop filter with multiple (>1) holders of the requested data.
system.membus.snoop_filter.hit_single_requests         4076                       # Number of requests hitting in the snoop filter with a single holder of the requested data.
system.membus.snoop_filter.hit_single_snoops            0                       # Number of snoops hitting in the snoop filter with a single holder of the requested data.
system.membus.snoop_filter.tot_requests         10304                       # Total number of requests made to the snoop filter.
system.membus.snoop_filter.tot_snoops               0                       # Total number of snoops made to the snoop filter.
system.switch_cpus.Branches                    716889                       # Number of branches fetched
system.switch_cpus.committedInsts            10000000                       # Number of instructions committed
system.switch_cpus.committedOps              16039467                       # Number of ops (including micro ops) committed
system.switch_cpus.dtb.rdAccesses             3610051                       # TLB accesses on read requests
system.switch_cpus.dtb.rdMisses                    35                       # TLB misses on read requests
system.switch_cpus.dtb.wrAccesses             1398194                       # TLB accesses on write requests
system.switch_cpus.dtb.wrMisses                    31                       # TLB misses on write requests
system.switch_cpus.idle_fraction             0.000828                       # Percentage of idle cycles
system.switch_cpus.itb.rdAccesses                   0                       # TLB accesses on read requests
system.switch_cpus.itb.rdMisses                     0                       # TLB misses on read requests
system.switch_cpus.itb.wrAccesses            13420468                       # TLB accesses on write requests
system.switch_cpus.itb.wrMisses                    11                       # TLB misses on write requests
system.switch_cpus.not_idle_fraction         0.999172                       # Percentage of non-idle cycles
system.switch_cpus.numCycles                 19459934                       # number of cpu cycles simulated
system.switch_cpus.numWorkItemsCompleted            0                       # number of work items this cpu completed
system.switch_cpus.numWorkItemsStarted              0                       # number of work items this cpu started
system.switch_cpus.num_busy_cycles       19443827.342253                       # Number of busy cycles
system.switch_cpus.num_cc_register_reads     13775627                       # number of times the CC registers were read
system.switch_cpus.num_cc_register_writes      6893934                       # number of times the CC registers were written
system.switch_cpus.num_conditional_control_insts       609769                       # number of instructions that are conditional controls
system.switch_cpus.num_fp_alu_accesses        1422468                       # Number of float alu accesses
system.switch_cpus.num_fp_insts               1422468                       # number of float instructions
system.switch_cpus.num_fp_register_reads      2544621                       # number of times the floating registers were read
system.switch_cpus.num_fp_register_writes      1261749                       # number of times the floating registers were written
system.switch_cpus.num_func_calls               64536                       # number of times a function call or return occured
system.switch_cpus.num_idle_cycles       16106.657747                       # Number of idle cycles
system.switch_cpus.num_int_alu_accesses      14820828                       # Number of integer alu accesses
system.switch_cpus.num_int_insts             14820828                       # number of integer instructions
system.switch_cpus.num_int_register_reads     34756229                       # number of times the integer registers were read
system.switch_cpus.num_int_register_writes     12576878                       # number of times the integer registers were written
system.switch_cpus.num_load_insts             3605611                       # Number of load instructions
system.switch_cpus.num_mem_refs               5003805                       # number of memory refs
system.switch_cpus.num_store_insts            1398194                       # Number of store instructions
system.switch_cpus.num_vec_alu_accesses             0                       # Number of vector alu accesses
system.switch_cpus.num_vec_insts                    0                       # number of vector instructions
system.switch_cpus.num_vec_register_reads            0                       # number of times the vector registers were read
system.switch_cpus.num_vec_register_writes            0                       # number of times the vector registers were written
system.switch_cpus.op_class::No_OpClass         95096      0.59%      0.59% # Class of executed instruction
system.switch_cpus.op_class::IntAlu           9834472     61.31%     61.91% # Class of executed instruction
system.switch_cpus.op_class::IntMult            85136      0.53%     62.44% # Class of executed instruction
system.switch_cpus.op_class::IntDiv                 0      0.00%     62.44% # Class of executed instruction
system.switch_cpus.op_class::FloatAdd           32304      0.20%     62.64% # Class of executed instruction
system.switch_cpus.op_class::FloatCmp               0      0.00%     62.64% # Class of executed instruction
system.switch_cpus.op_class::FloatCvt               0      0.00%     62.64% # Class of executed instruction
system.switch_cpus.op_class::FloatMult              0      0.00%     62.64% # Class of executed instruction
system.switch_cpus.op_class::FloatMultAcc            0      0.00%     62.64% # Class of executed instruction
system.switch_cpus.op_class::FloatDiv               0      0.00%     62.64% # Class of executed instruction
system.switch_cpus.op_class::FloatMisc              0      0.00%     62.64% # Class of executed instruction
system.switch_cpus.op_class::FloatSqrt              0      0.00%     62.64% # Class of executed instruction
system.switch_cpus.op_class::SimdAdd            21092      0.13%     62.77% # Class of executed instruction
system.switch_cpus.op_class::SimdAddAcc             0      0.00%     62.77% # Class of executed instruction
system.switch_cpus.op_class::SimdAlu           328288      2.05%     64.82% # Class of executed instruction
system.switch_cpus.op_class::SimdCmp                0      0.00%     64.82% # Class of executed instruction
system.switch_cpus.op_class::SimdCvt           126484      0.79%     65.61% # Class of executed instruction
system.switch_cpus.op_class::SimdMisc          158973      0.99%     66.60% # Class of executed instruction
system.switch_cpus.op_class::SimdMult               0      0.00%     66.60% # Class of executed instruction
system.switch_cpus.op_class::SimdMultAcc            0      0.00%     66.60% # Class of executed instruction
system.switch_cpus.op_class::SimdShift          63276      0.39%     66.99% # Class of executed instruction
system.switch_cpus.op_class::SimdShiftAcc            0      0.00%     66.99% # Class of executed instruction
system.switch_cpus.op_class::SimdDiv                0      0.00%     66.99% # Class of executed instruction
system.switch_cpus.op_class::SimdSqrt               0      0.00%     66.99% # Class of executed instruction
system.switch_cpus.op_class::SimdFloatAdd       107593      0.67%     67.66% # Class of executed instruction
system.switch_cpus.op_class::SimdFloatAlu            0      0.00%     67.66% # Class of executed instruction
system.switch_cpus.op_class::SimdFloatCmp           32      0.00%     67.66% # Class of executed instruction
system.switch_cpus.op_class::SimdFloatCvt       150578      0.94%     68.60% # Class of executed instruction
system.switch_cpus.op_class::SimdFloatDiv        21316      0.13%     68.73% # Class of executed instruction
system.switch_cpus.op_class::SimdFloatMisc            0      0.00%     68.73% # Class of executed instruction
system.switch_cpus.op_class::SimdFloatMult        11022      0.07%     68.80% # Class of executed instruction
system.switch_cpus.op_class::SimdFloatMultAcc            0      0.00%     68.80% # Class of executed instruction
system.switch_cpus.op_class::SimdFloatSqrt            0      0.00%     68.80% # Class of executed instruction
system.switch_cpus.op_class::SimdReduceAdd            0      0.00%     68.80% # Class of executed instruction
system.switch_cpus.op_class::SimdReduceAlu            0      0.00%     68.80% # Class of executed instruction
system.switch_cpus.op_class::SimdReduceCmp            0      0.00%     68.80% # Class of executed instruction
system.switch_cpus.op_class::SimdFloatReduceAdd            0      0.00%     68.80% # Class of executed instruction
system.switch_cpus.op_class::SimdFloatReduceCmp            0      0.00%     68.80% # Class of executed instruction
system.switch_cpus.op_class::SimdAes                0      0.00%     68.80% # Class of executed instruction
system.switch_cpus.op_class::SimdAesMix             0      0.00%     68.80% # Class of executed instruction
system.switch_cpus.op_class::SimdSha1Hash            0      0.00%     68.80% # Class of executed instruction
system.switch_cpus.op_class::SimdSha1Hash2            0      0.00%     68.80% # Class of executed instruction
system.switch_cpus.op_class::SimdSha256Hash            0      0.00%     68.80% # Class of executed instruction
system.switch_cpus.op_class::SimdSha256Hash2            0      0.00%     68.80% # Class of executed instruction
system.switch_cpus.op_class::SimdShaSigma2            0      0.00%     68.80% # Class of executed instruction
system.switch_cpus.op_class::SimdShaSigma3            0      0.00%     68.80% # Class of executed instruction
system.switch_cpus.op_class::SimdPredAlu            0      0.00%     68.80% # Class of executed instruction
system.switch_cpus.op_class::MemRead          3381322     21.08%     89.88% # Class of executed instruction
system.switch_cpus.op_class::MemWrite         1397847      8.72%     98.60% # Class of executed instruction
system.switch_cpus.op_class::FloatMemRead       224289      1.40%    100.00% # Class of executed instruction
system.switch_cpus.op_class::FloatMemWrite          347      0.00%    100.00% # Class of executed instruction
system.switch_cpus.op_class::IprAccess              0      0.00%    100.00% # Class of executed instruction
system.switch_cpus.op_class::InstPrefetch            0      0.00%    100.00% # Class of executed instruction
system.switch_cpus.op_class::total           16039467                       # Class of executed instruction
system.tol2bus.snoop_filter.hit_multi_requests            0                       # Number of requests hitting in the snoop filter with multiple (>1) holders of the requested data.
system.tol2bus.snoop_filter.hit_multi_snoops            0                       # Number of snoops hitting in the snoop filter with multiple (>1) holders of the requested data.
system.tol2bus.snoop_filter.hit_single_requests        24310                       # Number of requests hitting in the snoop filter with a single holder of the requested data.
system.tol2bus.snoop_filter.hit_single_snoops         2050                       # Number of snoops hitting in the snoop filter with a single holder of the requested data.
system.tol2bus.snoop_filter.tot_requests        49734                       # Total number of requests made to the snoop filter.
system.tol2bus.snoop_filter.tot_snoops           2050                       # Total number of snoops made to the snoop filter.
system.membus.pwrStateResidencyTicks::UNDEFINED 81946806284500                       # Cumulative time (in ticks) in various power states
system.membus.trans_dist::ReadResp               1999                       # Transaction distribution
system.membus.trans_dist::WritebackDirty         2621                       # Transaction distribution
system.membus.trans_dist::CleanEvict             1455                       # Transaction distribution
system.membus.trans_dist::ReadExReq              4229                       # Transaction distribution
system.membus.trans_dist::ReadExResp             4229                       # Transaction distribution
system.membus.trans_dist::ReadSharedReq          1999                       # Transaction distribution
system.membus.pkt_count_system.l2.mem_side::system.mem_ctrls.port        16532                       # Packet count per connected master and slave (bytes)
system.membus.pkt_count_system.l2.mem_side::total        16532                       # Packet count per connected master and slave (bytes)
system.membus.pkt_count::total                  16532                       # Packet count per connected master and slave (bytes)
system.membus.pkt_size_system.l2.mem_side::system.mem_ctrls.port       566336                       # Cumulative packet size per connected master and slave (bytes)
system.membus.pkt_size_system.l2.mem_side::total       566336                       # Cumulative packet size per connected master and slave (bytes)
system.membus.pkt_size::total                  566336                       # Cumulative packet size per connected master and slave (bytes)
system.membus.snoops                                0                       # Total snoops (count)
system.membus.snoopTraffic                          0                       # Total snoop traffic (bytes)
system.membus.snoop_fanout::samples              6228                       # Request fanout histogram
system.membus.snoop_fanout::mean                    0                       # Request fanout histogram
system.membus.snoop_fanout::stdev                   0                       # Request fanout histogram
system.membus.snoop_fanout::underflows              0      0.00%      0.00% # Request fanout histogram
system.membus.snoop_fanout::0                    6228    100.00%    100.00% # Request fanout histogram
system.membus.snoop_fanout::1                       0      0.00%    100.00% # Request fanout histogram
system.membus.snoop_fanout::overflows               0      0.00%    100.00% # Request fanout histogram
system.membus.snoop_fanout::min_value               0                       # Request fanout histogram
system.membus.snoop_fanout::max_value               0                       # Request fanout histogram
system.membus.snoop_fanout::total                6228                       # Request fanout histogram
system.membus.reqLayer2.occupancy                8500                       # Layer occupancy (ticks)
system.membus.reqLayer2.utilization               0.0                       # Layer utilization (%)
system.membus.respLayer1.occupancy              37750                       # Layer occupancy (ticks)
system.membus.respLayer1.utilization              0.0                       # Layer utilization (%)
system.switch_cpus.numPwrStateTransitions            1                       # Number of power state transitions
system.switch_cpus.pwrStateResidencyTicks::UNDEFINED 81937068257500                       # Cumulative time (in ticks) in various power states
system.switch_cpus.pwrStateResidencyTicks::OFF   9738027000                       # Cumulative time (in ticks) in various power states
system.switch_cpus.dtb.walker.pwrStateResidencyTicks::UNDEFINED 81946806284500                       # Cumulative time (in ticks) in various power states
system.switch_cpus.itb.walker.pwrStateResidencyTicks::UNDEFINED 81946806284500                       # Cumulative time (in ticks) in various power states
system.tol2bus.pwrStateResidencyTicks::UNDEFINED 81946806284500                       # Cumulative time (in ticks) in various power states
system.tol2bus.trans_dist::ReadResp              6207                       # Transaction distribution
system.tol2bus.trans_dist::WritebackDirty        18823                       # Transaction distribution
system.tol2bus.trans_dist::WritebackClean          199                       # Transaction distribution
system.tol2bus.trans_dist::CleanEvict            5288                       # Transaction distribution
system.tol2bus.trans_dist::ReadExReq            19217                       # Transaction distribution
system.tol2bus.trans_dist::ReadExResp           19217                       # Transaction distribution
system.tol2bus.trans_dist::ReadCleanReq           289                       # Transaction distribution
system.tol2bus.trans_dist::ReadSharedReq         5918                       # Transaction distribution
system.tol2bus.pkt_count_system.cpu.icache.mem_side::system.l2.cpu_side          777                       # Packet count per connected master and slave (bytes)
system.tol2bus.pkt_count_system.cpu.dcache.mem_side::system.l2.cpu_side        74381                       # Packet count per connected master and slave (bytes)
system.tol2bus.pkt_count::total                 75158                       # Packet count per connected master and slave (bytes)
system.tol2bus.pkt_size_system.cpu.icache.mem_side::system.l2.cpu_side        31232                       # Cumulative packet size per connected master and slave (bytes)
system.tol2bus.pkt_size_system.cpu.dcache.mem_side::system.l2.cpu_side      2813312                       # Cumulative packet size per connected master and slave (bytes)
system.tol2bus.pkt_size::total                2844544                       # Cumulative packet size per connected master and slave (bytes)
system.tol2bus.snoops                            5442                       # Total snoops (count)
system.tol2bus.snoopTraffic                    167744                       # Total snoop traffic (bytes)
system.tol2bus.snoop_fanout::samples            30866                       # Request fanout histogram
system.tol2bus.snoop_fanout::mean            0.066416                       # Request fanout histogram
system.tol2bus.snoop_fanout::stdev           0.249012                       # Request fanout histogram
system.tol2bus.snoop_fanout::underflows             0      0.00%      0.00% # Request fanout histogram
system.tol2bus.snoop_fanout::0                  28816     93.36%     93.36% # Request fanout histogram
system.tol2bus.snoop_fanout::1                   2050      6.64%    100.00% # Request fanout histogram
system.tol2bus.snoop_fanout::2                      0      0.00%    100.00% # Request fanout histogram
system.tol2bus.snoop_fanout::3                      0      0.00%    100.00% # Request fanout histogram
system.tol2bus.snoop_fanout::4                      0      0.00%    100.00% # Request fanout histogram
system.tol2bus.snoop_fanout::overflows              0      0.00%    100.00% # Request fanout histogram
system.tol2bus.snoop_fanout::min_value              0                       # Request fanout histogram
system.tol2bus.snoop_fanout::max_value              1                       # Request fanout histogram
system.tol2bus.snoop_fanout::total              30866                       # Request fanout histogram
system.tol2bus.reqLayer0.occupancy               3500                       # Layer occupancy (ticks)
system.tol2bus.reqLayer0.utilization              0.0                       # Layer utilization (%)
system.tol2bus.respLayer1.occupancy              7500                       # Layer occupancy (ticks)
system.tol2bus.respLayer1.utilization             0.0                       # Layer utilization (%)
system.tol2bus.respLayer0.occupancy              3000                       # Layer occupancy (ticks)
system.tol2bus.respLayer0.utilization             0.0                       # Layer utilization (%)
system.voltage_domain.voltage                       1                       # Voltage in Volts
system.clk_domain.clock                          1000                       # Clock period in ticks
system.l2.pwrStateResidencyTicks::UNDEFINED 81946806284500                       # Cumulative time (in ticks) in various power states
system.l2.demand_hits::.switch_cpus.inst          181                       # number of demand (read+write) hits
system.l2.demand_hits::.switch_cpus.data        19015                       # number of demand (read+write) hits
system.l2.demand_hits::total                    19196                       # number of demand (read+write) hits
system.l2.overall_hits::.switch_cpus.inst          181                       # number of overall hits
system.l2.overall_hits::.switch_cpus.data        19015                       # number of overall hits
system.l2.overall_hits::total                   19196                       # number of overall hits
system.l2.demand_misses::.cpu.inst                  2                       # number of demand (read+write) misses
system.l2.demand_misses::.cpu.data                  5                       # number of demand (read+write) misses
system.l2.demand_misses::.switch_cpus.inst          106                       # number of demand (read+write) misses
system.l2.demand_misses::.switch_cpus.data         6115                       # number of demand (read+write) misses
system.l2.demand_misses::total                   6228                       # number of demand (read+write) misses
system.l2.overall_misses::.cpu.inst                 2                       # number of overall misses
system.l2.overall_misses::.cpu.data                 5                       # number of overall misses
system.l2.overall_misses::.switch_cpus.inst          106                       # number of overall misses
system.l2.overall_misses::.switch_cpus.data         6115                       # number of overall misses
system.l2.overall_misses::total                  6228                       # number of overall misses
system.l2.demand_miss_latency::.cpu.inst       155500                       # number of demand (read+write) miss cycles
system.l2.demand_miss_latency::.cpu.data       467000                       # number of demand (read+write) miss cycles
system.l2.demand_miss_latency::total           622500                       # number of demand (read+write) miss cycles
system.l2.overall_miss_latency::.cpu.inst       155500                       # number of overall miss cycles
system.l2.overall_miss_latency::.cpu.data       467000                       # number of overall miss cycles
system.l2.overall_miss_latency::total          622500                       # number of overall miss cycles
system.l2.demand_accesses::.cpu.inst                2                       # number of demand (read+write) accesses
system.l2.demand_accesses::.cpu.data                5                       # number of demand (read+write) accesses
system.l2.demand_accesses::.switch_cpus.inst          287                       # number of demand (read+write) accesses
system.l2.demand_accesses::.switch_cpus.data        25130                       # number of demand (read+write) accesses
system.l2.demand_accesses::total                25424                       # number of demand (read+write) accesses
system.l2.overall_accesses::.cpu.inst               2                       # number of overall (read+write) accesses
system.l2.overall_accesses::.cpu.data               5                       # number of overall (read+write) accesses
system.l2.overall_accesses::.switch_cpus.inst          287                       # number of overall (read+write) accesses
system.l2.overall_accesses::.switch_cpus.data        25130                       # number of overall (read+write) accesses
system.l2.overall_accesses::total               25424                       # number of overall (read+write) accesses
system.l2.demand_miss_rate::.cpu.inst               1                       # miss rate for demand accesses
system.l2.demand_miss_rate::.cpu.data               1                       # miss rate for demand accesses
system.l2.demand_miss_rate::.switch_cpus.inst     0.369338                       # miss rate for demand accesses
system.l2.demand_miss_rate::.switch_cpus.data     0.243335                       # miss rate for demand accesses
system.l2.demand_miss_rate::total            0.244965                       # miss rate for demand accesses
system.l2.overall_miss_rate::.cpu.inst              1                       # miss rate for overall accesses
system.l2.overall_miss_rate::.cpu.data              1                       # miss rate for overall accesses
system.l2.overall_miss_rate::.switch_cpus.inst     0.369338                       # miss rate for overall accesses
system.l2.overall_miss_rate::.switch_cpus.data     0.243335                       # miss rate for overall accesses
system.l2.overall_miss_rate::total           0.244965                       # miss rate for overall accesses
system.l2.demand_avg_miss_latency::.cpu.inst        77750                       # average overall miss latency
system.l2.demand_avg_miss_latency::.cpu.data        93400                       # average overall miss latency
system.l2.demand_avg_miss_latency::total    99.951830                       # average overall miss latency
system.l2.overall_avg_miss_latency::.cpu.inst        77750                       # average overall miss latency
system.l2.overall_avg_miss_latency::.cpu.data        93400                       # average overall miss latency
system.l2.overall_avg_miss_latency::total    99.951830                       # average overall miss latency
system.l2.blocked_cycles::no_mshrs                  0                       # number of cycles access was blocked
system.l2.blocked_cycles::no_targets                0                       # number of cycles access was blocked
system.l2.blocked::no_mshrs                         0                       # number of cycles access was blocked
system.l2.blocked::no_targets                       0                       # number of cycles access was blocked
system.l2.avg_blocked_cycles::no_mshrs            nan                       # average number of cycles each access was blocked
system.l2.avg_blocked_cycles::no_targets          nan                       # average number of cycles each access was blocked
system.l2.writebacks::.writebacks                2621                       # number of writebacks
system.l2.writebacks::total                      2621                       # number of writebacks
system.l2.demand_mshr_misses::.cpu.inst             2                       # number of demand (read+write) MSHR misses
system.l2.demand_mshr_misses::.cpu.data             5                       # number of demand (read+write) MSHR misses
system.l2.demand_mshr_misses::total                 7                       # number of demand (read+write) MSHR misses
system.l2.overall_mshr_misses::.cpu.inst            2                       # number of overall MSHR misses
system.l2.overall_mshr_misses::.cpu.data            5                       # number of overall MSHR misses
system.l2.overall_mshr_misses::total                7                       # number of overall MSHR misses
system.l2.demand_mshr_miss_latency::.cpu.inst       135500                       # number of demand (read+write) MSHR miss cycles
system.l2.demand_mshr_miss_latency::.cpu.data       417000                       # number of demand (read+write) MSHR miss cycles
system.l2.demand_mshr_miss_latency::total       552500                       # number of demand (read+write) MSHR miss cycles
system.l2.overall_mshr_miss_latency::.cpu.inst       135500                       # number of overall MSHR miss cycles
system.l2.overall_mshr_miss_latency::.cpu.data       417000                       # number of overall MSHR miss cycles
system.l2.overall_mshr_miss_latency::total       552500                       # number of overall MSHR miss cycles
system.l2.demand_mshr_miss_rate::.cpu.inst            1                       # mshr miss rate for demand accesses
system.l2.demand_mshr_miss_rate::.cpu.data            1                       # mshr miss rate for demand accesses
system.l2.demand_mshr_miss_rate::total       0.000275                       # mshr miss rate for demand accesses
system.l2.overall_mshr_miss_rate::.cpu.inst            1                       # mshr miss rate for overall accesses
system.l2.overall_mshr_miss_rate::.cpu.data            1                       # mshr miss rate for overall accesses
system.l2.overall_mshr_miss_rate::total      0.000275                       # mshr miss rate for overall accesses
system.l2.demand_avg_mshr_miss_latency::.cpu.inst        67750                       # average overall mshr miss latency
system.l2.demand_avg_mshr_miss_latency::.cpu.data        83400                       # average overall mshr miss latency
system.l2.demand_avg_mshr_miss_latency::total 78928.571429                       # average overall mshr miss latency
system.l2.overall_avg_mshr_miss_latency::.cpu.inst        67750                       # average overall mshr miss latency
system.l2.overall_avg_mshr_miss_latency::.cpu.data        83400                       # average overall mshr miss latency
system.l2.overall_avg_mshr_miss_latency::total 78928.571429                       # average overall mshr miss latency
system.l2.replacements                           5442                       # number of replacements
system.l2.WritebackDirty_hits::.writebacks        18823                       # number of WritebackDirty hits
system.l2.WritebackDirty_hits::total            18823                       # number of WritebackDirty hits
system.l2.WritebackDirty_accesses::.writebacks        18823                       # number of WritebackDirty accesses(hits+misses)
system.l2.WritebackDirty_accesses::total        18823                       # number of WritebackDirty accesses(hits+misses)
system.l2.WritebackClean_hits::.writebacks          199                       # number of WritebackClean hits
system.l2.WritebackClean_hits::total              199                       # number of WritebackClean hits
system.l2.WritebackClean_accesses::.writebacks          199                       # number of WritebackClean accesses(hits+misses)
system.l2.WritebackClean_accesses::total          199                       # number of WritebackClean accesses(hits+misses)
system.l2.ReadExReq_hits::.switch_cpus.data        14988                       # number of ReadExReq hits
system.l2.ReadExReq_hits::total                 14988                       # number of ReadExReq hits
system.l2.ReadExReq_misses::.cpu.data               1                       # number of ReadExReq misses
system.l2.ReadExReq_misses::.switch_cpus.data         4228                       # number of ReadExReq misses
system.l2.ReadExReq_misses::total                4229                       # number of ReadExReq misses
system.l2.ReadExReq_miss_latency::.cpu.data        98000                       # number of ReadExReq miss cycles
system.l2.ReadExReq_miss_latency::total         98000                       # number of ReadExReq miss cycles
system.l2.ReadExReq_accesses::.cpu.data             1                       # number of ReadExReq accesses(hits+misses)
system.l2.ReadExReq_accesses::.switch_cpus.data        19216                       # number of ReadExReq accesses(hits+misses)
system.l2.ReadExReq_accesses::total             19217                       # number of ReadExReq accesses(hits+misses)
system.l2.ReadExReq_miss_rate::.cpu.data            1                       # miss rate for ReadExReq accesses
system.l2.ReadExReq_miss_rate::.switch_cpus.data     0.220025                       # miss rate for ReadExReq accesses
system.l2.ReadExReq_miss_rate::total         0.220066                       # miss rate for ReadExReq accesses
system.l2.ReadExReq_avg_miss_latency::.cpu.data        98000                       # average ReadExReq miss latency
system.l2.ReadExReq_avg_miss_latency::total    23.173327                       # average ReadExReq miss latency
system.l2.ReadExReq_mshr_misses::.cpu.data            1                       # number of ReadExReq MSHR misses
system.l2.ReadExReq_mshr_misses::total              1                       # number of ReadExReq MSHR misses
system.l2.ReadExReq_mshr_miss_latency::.cpu.data        88000                       # number of ReadExReq MSHR miss cycles
system.l2.ReadExReq_mshr_miss_latency::total        88000                       # number of ReadExReq MSHR miss cycles
system.l2.ReadExReq_mshr_miss_rate::.cpu.data            1                       # mshr miss rate for ReadExReq accesses
system.l2.ReadExReq_mshr_miss_rate::total     0.000052                       # mshr miss rate for ReadExReq accesses
system.l2.ReadExReq_avg_mshr_miss_latency::.cpu.data        88000                       # average ReadExReq mshr miss latency
system.l2.ReadExReq_avg_mshr_miss_latency::total        88000                       # average ReadExReq mshr miss latency
system.l2.ReadCleanReq_hits::.switch_cpus.inst          181                       # number of ReadCleanReq hits
system.l2.ReadCleanReq_hits::total                181                       # number of ReadCleanReq hits
system.l2.ReadCleanReq_misses::.cpu.inst            2                       # number of ReadCleanReq misses
system.l2.ReadCleanReq_misses::.switch_cpus.inst          106                       # number of ReadCleanReq misses
system.l2.ReadCleanReq_misses::total              108                       # number of ReadCleanReq misses
system.l2.ReadCleanReq_miss_latency::.cpu.inst       155500                       # number of ReadCleanReq miss cycles
system.l2.ReadCleanReq_miss_latency::total       155500                       # number of ReadCleanReq miss cycles
system.l2.ReadCleanReq_accesses::.cpu.inst            2                       # number of ReadCleanReq accesses(hits+misses)
system.l2.ReadCleanReq_accesses::.switch_cpus.inst          287                       # number of ReadCleanReq accesses(hits+misses)
system.l2.ReadCleanReq_accesses::total            289                       # number of ReadCleanReq accesses(hits+misses)
system.l2.ReadCleanReq_miss_rate::.cpu.inst            1                       # miss rate for ReadCleanReq accesses
system.l2.ReadCleanReq_miss_rate::.switch_cpus.inst     0.369338                       # miss rate for ReadCleanReq accesses
system.l2.ReadCleanReq_miss_rate::total      0.373702                       # miss rate for ReadCleanReq accesses
system.l2.ReadCleanReq_avg_miss_latency::.cpu.inst        77750                       # average ReadCleanReq miss latency
system.l2.ReadCleanReq_avg_miss_latency::total  1439.814815                       # average ReadCleanReq miss latency
system.l2.ReadCleanReq_mshr_misses::.cpu.inst            2                       # number of ReadCleanReq MSHR misses
system.l2.ReadCleanReq_mshr_misses::total            2                       # number of ReadCleanReq MSHR misses
system.l2.ReadCleanReq_mshr_miss_latency::.cpu.inst       135500                       # number of ReadCleanReq MSHR miss cycles
system.l2.ReadCleanReq_mshr_miss_latency::total       135500                       # number of ReadCleanReq MSHR miss cycles
system.l2.ReadCleanReq_mshr_miss_rate::.cpu.inst            1                       # mshr miss rate for ReadCleanReq accesses
system.l2.ReadCleanReq_mshr_miss_rate::total     0.006920                       # mshr miss rate for ReadCleanReq accesses
system.l2.ReadCleanReq_avg_mshr_miss_latency::.cpu.inst        67750                       # average ReadCleanReq mshr miss latency
system.l2.ReadCleanReq_avg_mshr_miss_latency::total        67750                       # average ReadCleanReq mshr miss latency
system.l2.ReadSharedReq_hits::.switch_cpus.data         4027                       # number of ReadSharedReq hits
system.l2.ReadSharedReq_hits::total              4027                       # number of ReadSharedReq hits
system.l2.ReadSharedReq_misses::.cpu.data            4                       # number of ReadSharedReq misses
system.l2.ReadSharedReq_misses::.switch_cpus.data         1887                       # number of ReadSharedReq misses
system.l2.ReadSharedReq_misses::total            1891                       # number of ReadSharedReq misses
system.l2.ReadSharedReq_miss_latency::.cpu.data       369000                       # number of ReadSharedReq miss cycles
system.l2.ReadSharedReq_miss_latency::total       369000                       # number of ReadSharedReq miss cycles
system.l2.ReadSharedReq_accesses::.cpu.data            4                       # number of ReadSharedReq accesses(hits+misses)
system.l2.ReadSharedReq_accesses::.switch_cpus.data         5914                       # number of ReadSharedReq accesses(hits+misses)
system.l2.ReadSharedReq_accesses::total          5918                       # number of ReadSharedReq accesses(hits+misses)
system.l2.ReadSharedReq_miss_rate::.cpu.data            1                       # miss rate for ReadSharedReq accesses
system.l2.ReadSharedReq_miss_rate::.switch_cpus.data     0.319073                       # miss rate for ReadSharedReq accesses
system.l2.ReadSharedReq_miss_rate::total     0.319534                       # miss rate for ReadSharedReq accesses
system.l2.ReadSharedReq_avg_miss_latency::.cpu.data        92250                       # average ReadSharedReq miss latency
system.l2.ReadSharedReq_avg_miss_latency::total   195.134849                       # average ReadSharedReq miss latency
system.l2.ReadSharedReq_mshr_misses::.cpu.data            4                       # number of ReadSharedReq MSHR misses
system.l2.ReadSharedReq_mshr_misses::total            4                       # number of ReadSharedReq MSHR misses
system.l2.ReadSharedReq_mshr_miss_latency::.cpu.data       329000                       # number of ReadSharedReq MSHR miss cycles
system.l2.ReadSharedReq_mshr_miss_latency::total       329000                       # number of ReadSharedReq MSHR miss cycles
[...]
system.mem_ctrls.rank0.readEnergy                   0                       # Energy for read commands per rank (pJ)
system.mem_ctrls.rank0.writeEnergy                  0                       # Energy for write commands per rank (pJ)
system.mem_ctrls.rank0.refreshEnergy                0                       # Energy for refresh commands per rank (pJ)
system.mem_ctrls.rank0.actBackEnergy                0                       # Energy for active background per rank (pJ)
system.mem_ctrls.rank0.preBackEnergy      11209627200                       # Energy for precharge background per rank (pJ)
system.mem_ctrls.rank0.actPowerDownEnergy            0                       # Energy for active power-down per rank (pJ)
system.mem_ctrls.rank0.prePowerDownEnergy            0                       # Energy for precharge power-down per rank (pJ)
system.mem_ctrls.rank0.selfRefreshEnergy            0                       # Energy for self refresh per rank (pJ)
system.mem_ctrls.rank0.totalEnergy        11209627200                       # Total energy per rank (pJ)
system.mem_ctrls.rank0.averagePower        384.000007                       # Core power per rank (mW)
system.mem_ctrls.rank0.totalIdleTime                0                       # Total Idle time Per DRAM Rank
system.mem_ctrls.rank0.memoryStateTime::IDLE  29191737000                       # Time in different power states
system.mem_ctrls.rank0.memoryStateTime::REF            0                       # Time in different power states
system.mem_ctrls.rank0.memoryStateTime::SREF            0                       # Time in different power states
system.mem_ctrls.rank0.memoryStateTime::PRE_PDN            0                       # Time in different power states
system.mem_ctrls.rank0.memoryStateTime::ACT            0                       # Time in different power states
system.mem_ctrls.rank0.memoryStateTime::ACT_PDN            0                       # Time in different power states
system.cpu_clk_domain.clock                       500                       # Clock period in ticks
system.cpu.pwrStateResidencyTicks::OFF    29191737000                       # Cumulative time (in ticks) in various power states
system.cpu.icache.pwrStateResidencyTicks::UNDEFINED  29191737000                       # Cumulative time (in ticks) in various power states
system.cpu.icache.demand_hits::.switch_cpus.inst     40260049                       # number of demand (read+write) hits
system.cpu.icache.demand_hits::total         40260049                       # number of demand (read+write) hits
system.cpu.icache.overall_hits::.switch_cpus.inst     40260049                       # number of overall hits
system.cpu.icache.overall_hits::total        40260049                       # number of overall hits
system.cpu.icache.demand_misses::.switch_cpus.inst          567                       # number of demand (read+write) misses
system.cpu.icache.demand_misses::total            567                       # number of demand (read+write) misses
system.cpu.icache.overall_misses::.switch_cpus.inst          567                       # number of overall misses
system.cpu.icache.overall_misses::total           567                       # number of overall misses
system.cpu.icache.demand_accesses::.switch_cpus.inst     40260616                       # number of demand (read+write) accesses
system.cpu.icache.demand_accesses::total     40260616                       # number of demand (read+write) accesses
system.cpu.icache.overall_accesses::.switch_cpus.inst     40260616                       # number of overall (read+write) accesses
system.cpu.icache.overall_accesses::total     40260616                       # number of overall (read+write) accesses
system.cpu.icache.demand_miss_rate::.switch_cpus.inst     0.000014                       # miss rate for demand accesses
system.cpu.icache.demand_miss_rate::total     0.000014                       # miss rate for demand accesses
system.cpu.icache.overall_miss_rate::.switch_cpus.inst     0.000014                       # miss rate for overall accesses
system.cpu.icache.overall_miss_rate::total     0.000014                       # miss rate for overall accesses
system.cpu.icache.blocked_cycles::no_mshrs            0                       # number of cycles access was blocked
system.cpu.icache.blocked_cycles::no_targets            0                       # number of cycles access was blocked
system.cpu.icache.blocked::no_mshrs                 0                       # number of cycles access was blocked
system.cpu.icache.blocked::no_targets               0                       # number of cycles access was blocked
system.cpu.icache.avg_blocked_cycles::no_mshrs          nan                       # average number of cycles each access was blocked
system.cpu.icache.avg_blocked_cycles::no_targets          nan                       # average number of cycles each access was blocked
system.cpu.icache.writebacks::.writebacks          567                       # number of writebacks
system.cpu.icache.writebacks::total               567                       # number of writebacks
system.cpu.icache.replacements                    567                       # number of replacements
system.cpu.icache.ReadReq_hits::.switch_cpus.inst     40260049                       # number of ReadReq hits
system.cpu.icache.ReadReq_hits::total        40260049                       # number of ReadReq hits
system.cpu.icache.ReadReq_misses::.switch_cpus.inst          567                       # number of ReadReq misses
system.cpu.icache.ReadReq_misses::total           567                       # number of ReadReq misses
system.cpu.icache.ReadReq_accesses::.switch_cpus.inst     40260616                       # number of ReadReq accesses(hits+misses)
system.cpu.icache.ReadReq_accesses::total     40260616                       # number of ReadReq accesses(hits+misses)
system.cpu.icache.ReadReq_miss_rate::.switch_cpus.inst     0.000014                       # miss rate for ReadReq accesses
system.cpu.icache.ReadReq_miss_rate::total     0.000014                       # miss rate for ReadReq accesses
system.cpu.icache.tags.pwrStateResidencyTicks::UNDEFINED  29191737000                       # Cumulative time (in ticks) in various power states
system.cpu.icache.tags.tagsinuse                   90                       # Cycle average of tags in use
system.cpu.icache.tags.total_refs            53221632                       # Total number of references to valid blocks.
system.cpu.icache.tags.sampled_refs               657                       # Sample count of references to valid blocks.
system.cpu.icache.tags.avg_refs          81007.050228                       # Average number of references to valid blocks.
system.cpu.icache.tags.warmup_cycle                 0                       # Cycle when the warmup percentage was hit.
system.cpu.icache.tags.occ_blocks::.cpu.inst            2                       # Average occupied blocks per requestor
system.cpu.icache.tags.occ_blocks::.switch_cpus.inst           88                       # Average occupied blocks per requestor
system.cpu.icache.tags.occ_percent::.cpu.inst     0.003906                       # Average percentage of cache occupancy
system.cpu.icache.tags.occ_percent::.switch_cpus.inst     0.171875                       # Average percentage of cache occupancy
system.cpu.icache.tags.occ_percent::total     0.175781                       # Average percentage of cache occupancy
system.cpu.icache.tags.occ_task_id_blocks::1024           90                       # Occupied blocks per task id
system.cpu.icache.tags.age_task_id_blocks_1024::1            4                       # Occupied blocks per task id
system.cpu.icache.tags.age_task_id_blocks_1024::3            2                       # Occupied blocks per task id
system.cpu.icache.tags.age_task_id_blocks_1024::4           84                       # Occupied blocks per task id
system.cpu.icache.tags.occ_task_id_percent::1024     0.175781                       # Percentage of cache occupancy per task id
system.cpu.icache.tags.tag_accesses          80521799                       # Number of tag accesses
system.cpu.icache.tags.data_accesses         80521799                       # Number of data accesses
system.cpu.dtb.walker.pwrStateResidencyTicks::UNDEFINED  29191737000                       # Cumulative time (in ticks) in various power states
system.cpu.interrupts.clk_domain.clock           8000                       # Clock period in ticks
system.cpu.itb_walker_cache.pwrStateResidencyTicks::UNDEFINED  29191737000                       # Cumulative time (in ticks) in various power states
system.cpu.itb_walker_cache.blocked_cycles::no_mshrs            0                       # number of cycles access was blocked
system.cpu.itb_walker_cache.blocked_cycles::no_targets            0                       # number of cycles access was blocked
system.cpu.itb_walker_cache.blocked::no_mshrs            0                       # number of cycles access was blocked
system.cpu.itb_walker_cache.blocked::no_targets            0                       # number of cycles access was blocked
system.cpu.itb_walker_cache.avg_blocked_cycles::no_mshrs          nan                       # average number of cycles each access was blocked
system.cpu.itb_walker_cache.avg_blocked_cycles::no_targets          nan                       # average number of cycles each access was blocked
system.cpu.itb_walker_cache.replacements            0                       # number of replacements
system.cpu.itb_walker_cache.tags.pwrStateResidencyTicks::UNDEFINED  29191737000                       # Cumulative time (in ticks) in various power states
system.cpu.itb_walker_cache.tags.tagsinuse            0                       # Cycle average of tags in use
system.cpu.itb_walker_cache.tags.total_refs            0                       # Total number of references to valid blocks.
system.cpu.itb_walker_cache.tags.sampled_refs            0                       # Sample count of references to valid blocks.
system.cpu.itb_walker_cache.tags.avg_refs          nan                       # Average number of references to valid blocks.
system.cpu.itb_walker_cache.tags.warmup_cycle            0                       # Cycle when the warmup percentage was hit.
system.cpu.itb_walker_cache.tags.tag_accesses            0                       # Number of tag accesses
system.cpu.itb_walker_cache.tags.data_accesses            0                       # Number of data accesses
system.cpu.itb.walker.pwrStateResidencyTicks::UNDEFINED  29191737000                       # Cumulative time (in ticks) in various power states
system.cpu.dtb_walker_cache.pwrStateResidencyTicks::UNDEFINED  29191737000                       # Cumulative time (in ticks) in various power states
system.cpu.dtb_walker_cache.blocked_cycles::no_mshrs            0                       # number of cycles access was blocked
system.cpu.dtb_walker_cache.blocked_cycles::no_targets            0                       # number of cycles access was blocked
system.cpu.dtb_walker_cache.blocked::no_mshrs            0                       # number of cycles access was blocked
system.cpu.dtb_walker_cache.blocked::no_targets            0                       # number of cycles access was blocked
system.cpu.dtb_walker_cache.avg_blocked_cycles::no_mshrs          nan                       # average number of cycles each access was blocked
system.cpu.dtb_walker_cache.avg_blocked_cycles::no_targets          nan                       # average number of cycles each access was blocked
system.cpu.dtb_walker_cache.replacements            0                       # number of replacements
system.cpu.dtb_walker_cache.tags.pwrStateResidencyTicks::UNDEFINED  29191737000                       # Cumulative time (in ticks) in various power states
system.cpu.dtb_walker_cache.tags.tagsinuse            0                       # Cycle average of tags in use
system.cpu.dtb_walker_cache.tags.total_refs            0                       # Total number of references to valid blocks.
system.cpu.dtb_walker_cache.tags.sampled_refs            0                       # Sample count of references to valid blocks.
system.cpu.dtb_walker_cache.tags.avg_refs          nan                       # Average number of references to valid blocks.
system.cpu.dtb_walker_cache.tags.warmup_cycle            0                       # Cycle when the warmup percentage was hit.
system.cpu.dtb_walker_cache.tags.tag_accesses            0                       # Number of tag accesses
system.cpu.dtb_walker_cache.tags.data_accesses            0                       # Number of data accesses
system.cpu.dcache.pwrStateResidencyTicks::UNDEFINED  29191737000                       # Cumulative time (in ticks) in various power states
system.cpu.dcache.demand_hits::.switch_cpus.data     14940514                       # number of demand (read+write) hits
system.cpu.dcache.demand_hits::total         14940514                       # number of demand (read+write) hits
system.cpu.dcache.overall_hits::.switch_cpus.data     14940514                       # number of overall hits
system.cpu.dcache.overall_hits::total        14940514                       # number of overall hits
system.cpu.dcache.demand_misses::.switch_cpus.data        78611                       # number of demand (read+write) misses
system.cpu.dcache.demand_misses::total          78611                       # number of demand (read+write) misses
system.cpu.dcache.overall_misses::.switch_cpus.data        78611                       # number of overall misses
system.cpu.dcache.overall_misses::total         78611                       # number of overall misses
system.cpu.dcache.demand_accesses::.switch_cpus.data     15019125                       # number of demand (read+write) accesses
system.cpu.dcache.demand_accesses::total     15019125                       # number of demand (read+write) accesses
system.cpu.dcache.overall_accesses::.switch_cpus.data     15019125                       # number of overall (read+write) accesses
system.cpu.dcache.overall_accesses::total     15019125                       # number of overall (read+write) accesses
system.cpu.dcache.demand_miss_rate::.switch_cpus.data     0.005234                       # miss rate for demand accesses
system.cpu.dcache.demand_miss_rate::total     0.005234                       # miss rate for demand accesses
system.cpu.dcache.overall_miss_rate::.switch_cpus.data     0.005234                       # miss rate for overall accesses
system.cpu.dcache.overall_miss_rate::total     0.005234                       # miss rate for overall accesses
system.cpu.dcache.blocked_cycles::no_mshrs            0                       # number of cycles access was blocked
system.cpu.dcache.blocked_cycles::no_targets            0                       # number of cycles access was blocked
system.cpu.dcache.blocked::no_mshrs                 0                       # number of cycles access was blocked
system.cpu.dcache.blocked::no_targets               0                       # number of cycles access was blocked
system.cpu.dcache.avg_blocked_cycles::no_mshrs          nan                       # average number of cycles each access was blocked
system.cpu.dcache.avg_blocked_cycles::no_targets          nan                       # average number of cycles each access was blocked
system.cpu.dcache.writebacks::.writebacks        62201                       # number of writebacks
system.cpu.dcache.writebacks::total             62201                       # number of writebacks
system.cpu.dcache.replacements                  78611                       # number of replacements
system.cpu.dcache.ReadReq_hits::.switch_cpus.data     10809331                       # number of ReadReq hits
system.cpu.dcache.ReadReq_hits::total        10809331                       # number of ReadReq hits
system.cpu.dcache.ReadReq_misses::.switch_cpus.data        17876                       # number of ReadReq misses
system.cpu.dcache.ReadReq_misses::total         17876                       # number of ReadReq misses
system.cpu.dcache.ReadReq_accesses::.switch_cpus.data     10827207                       # number of ReadReq accesses(hits+misses)
system.cpu.dcache.ReadReq_accesses::total     10827207                       # number of ReadReq accesses(hits+misses)
system.cpu.dcache.ReadReq_miss_rate::.switch_cpus.data     0.001651                       # miss rate for ReadReq accesses
system.cpu.dcache.ReadReq_miss_rate::total     0.001651                       # miss rate for ReadReq accesses
system.cpu.dcache.WriteReq_hits::.switch_cpus.data      4131183                       # number of WriteReq hits
system.cpu.dcache.WriteReq_hits::total        4131183                       # number of WriteReq hits
system.cpu.dcache.WriteReq_misses::.switch_cpus.data        60735                       # number of WriteReq misses
system.cpu.dcache.WriteReq_misses::total        60735                       # number of WriteReq misses
system.cpu.dcache.WriteReq_accesses::.switch_cpus.data      4191918                       # number of WriteReq accesses(hits+misses)
system.cpu.dcache.WriteReq_accesses::total      4191918                       # number of WriteReq accesses(hits+misses)
system.cpu.dcache.WriteReq_miss_rate::.switch_cpus.data     0.014489                       # miss rate for WriteReq accesses
system.cpu.dcache.WriteReq_miss_rate::total     0.014489                       # miss rate for WriteReq accesses
system.cpu.dcache.tags.pwrStateResidencyTicks::UNDEFINED  29191737000                       # Cumulative time (in ticks) in various power states
system.cpu.dcache.tags.tagsinuse                 1024                       # Cycle average of tags in use
system.cpu.dcache.tags.total_refs            17512888                       # Total number of references to valid blocks.
system.cpu.dcache.tags.sampled_refs             79635                       # Sample count of references to valid blocks.
system.cpu.dcache.tags.avg_refs            219.914460                       # Average number of references to valid blocks.
system.cpu.dcache.tags.warmup_cycle                 0                       # Cycle when the warmup percentage was hit.
system.cpu.dcache.tags.occ_blocks::.cpu.data            2                       # Average occupied blocks per requestor
system.cpu.dcache.tags.occ_blocks::.switch_cpus.data         1022                       # Average occupied blocks per requestor
system.cpu.dcache.tags.occ_percent::.cpu.data     0.001953                       # Average percentage of cache occupancy
system.cpu.dcache.tags.occ_percent::.switch_cpus.data     0.998047                       # Average percentage of cache occupancy
system.cpu.dcache.tags.occ_percent::total            1                       # Average percentage of cache occupancy
system.cpu.dcache.tags.occ_task_id_blocks::1024         1024                       # Occupied blocks per task id
system.cpu.dcache.tags.age_task_id_blocks_1024::0            7                       # Occupied blocks per task id
system.cpu.dcache.tags.age_task_id_blocks_1024::1           76                       # Occupied blocks per task id
system.cpu.dcache.tags.age_task_id_blocks_1024::2          775                       # Occupied blocks per task id
system.cpu.dcache.tags.age_task_id_blocks_1024::3          130                       # Occupied blocks per task id
system.cpu.dcache.tags.age_task_id_blocks_1024::4           36                       # Occupied blocks per task id
system.cpu.dcache.tags.occ_task_id_percent::1024            1                       # Percentage of cache occupancy per task id
system.cpu.dcache.tags.tag_accesses          30116861                       # Number of tag accesses
system.cpu.dcache.tags.data_accesses         30116861                       # Number of data accesses

---------- End Simulation Statistics   ----------
