
---------- Begin Simulation Statistics ----------
final_tick                               164636479139500                       # Number of ticks from beginning of simulation (restored from checkpoints and never reset)
host_inst_rate                                  21936                       # Simulator instruction rate (inst/s)
host_mem_usage                                 827432                       # Number of bytes of host memory used
host_op_rate                                    37818                       # Simulator op (including micro ops) rate (op/s)
host_seconds                                   455.87                       # Real time elapsed on the host
host_tick_rate                               69871750                       # Simulator tick rate (ticks/s)
sim_freq                                 1000000000000                       # Frequency of simulated ticks
sim_insts                                    10000015                       # Number of instructions simulated
sim_ops                                      17240059                       # Number of ops (including micro ops) simulated
sim_seconds                                  0.031852                       # Number of seconds simulated
sim_ticks                                 31852495750                       # Number of ticks simulated
system.cpu.Branches                                 3                       # Number of branches fetched
system.cpu.committedInsts                          11                       # Number of instructions committed
system.cpu.committedOps                            21                       # Number of ops (including micro ops) committed
system.cpu.dtb.rdAccesses                           5                       # TLB accesses on read requests
system.cpu.dtb.rdMisses                             0                       # TLB misses on read requests
system.cpu.dtb.wrAccesses                           2                       # TLB accesses on write requests
system.cpu.dtb.wrMisses                             0                       # TLB misses on write requests
system.cpu.idle_fraction                            0                       # Percentage of idle cycles
system.cpu.itb.rdAccesses                           0                       # TLB accesses on read requests
system.cpu.itb.rdMisses                             0                       # TLB misses on read requests
system.cpu.itb.wrAccesses                          11                       # TLB accesses on write requests
system.cpu.itb.wrMisses                             0                       # TLB misses on write requests
system.cpu.not_idle_fraction                        1                       # Percentage of non-idle cycles
system.cpu.numCycles                               21                       # number of cpu cycles simulated
system.cpu.numWorkItemsCompleted                    0                       # number of work items this cpu completed
system.cpu.numWorkItemsStarted                      0                       # number of work items this cpu started
system.cpu.num_busy_cycles                         21                       # Number of busy cycles
system.cpu.num_cc_register_reads                   15                       # number of times the CC registers were read
system.cpu.num_cc_register_writes                  10                       # number of times the CC registers were written
system.cpu.num_conditional_control_insts            3                       # number of instructions that are conditional controls
system.cpu.num_fp_alu_accesses                      0                       # Number of float alu accesses
system.cpu.num_fp_insts                             0                       # number of float instructions
system.cpu.num_fp_register_reads                    0                       # number of times the floating registers were read
system.cpu.num_fp_register_writes                   0                       # number of times the floating registers were written
system.cpu.num_func_calls                           0                       # number of times a function call or return occured
system.cpu.num_idle_cycles                          0                       # Number of idle cycles
system.cpu.num_int_alu_accesses                    21                       # Number of integer alu accesses
system.cpu.num_int_insts                           21                       # number of integer instructions
system.cpu.num_int_register_reads                  45                       # number of times the integer registers were read
system.cpu.num_int_register_writes                 16                       # number of times the integer registers were written
system.cpu.num_load_insts                           5                       # Number of load instructions
system.cpu.num_mem_refs                             7                       # number of memory refs
system.cpu.num_store_insts                          2                       # Number of store instructions
system.cpu.num_vec_alu_accesses                     0                       # Number of vector alu accesses
system.cpu.num_vec_insts                            0                       # number of vector instructions
system.cpu.num_vec_register_reads                   0                       # number of times the vector registers were read
system.cpu.num_vec_register_writes                  0                       # number of times the vector registers were written
system.cpu.op_class::No_OpClass                     0      0.00%      0.00% # Class of executed instruction
system.cpu.op_class::IntAlu                        14     66.67%     66.67% # Class of executed instruction
system.cpu.op_class::IntMult                        0      0.00%     66.67% # Class of executed instruction
system.cpu.op_class::IntDiv                         0      0.00%     66.67% # Class of executed instruction
system.cpu.op_class::FloatAdd                       0      0.00%     66.67% # Class of executed instruction
system.cpu.op_class::FloatCmp                       0      0.00%     66.67% # Class of executed instruction
system.cpu.op_class::FloatCvt                       0      0.00%     66.67% # Class of executed instruction
system.cpu.op_class::FloatMult                      0      0.00%     66.67% # Class of executed instruction
system.cpu.op_class::FloatMultAcc                   0      0.00%     66.67% # Class of executed instruction
system.cpu.op_class::FloatDiv                       0      0.00%     66.67% # Class of executed instruction
system.cpu.op_class::FloatMisc                      0      0.00%     66.67% # Class of executed instruction
system.cpu.op_class::FloatSqrt                      0      0.00%     66.67% # Class of executed instruction
system.cpu.op_class::SimdAdd                        0      0.00%     66.67% # Class of executed instruction
system.cpu.op_class::SimdAddAcc                     0      0.00%     66.67% # Class of executed instruction
system.cpu.op_class::SimdAlu                        0      0.00%     66.67% # Class of executed instruction
system.cpu.op_class::SimdCmp                        0      0.00%     66.67% # Class of executed instruction
system.cpu.op_class::SimdCvt                        0      0.00%     66.67% # Class of executed instruction
system.cpu.op_class::SimdMisc                       0      0.00%     66.67% # Class of executed instruction
system.cpu.op_class::SimdMult                       0      0.00%     66.67% # Class of executed instruction
system.cpu.op_class::SimdMultAcc                    0      0.00%     66.67% # Class of executed instruction
system.cpu.op_class::SimdShift                      0      0.00%     66.67% # Class of executed instruction
system.cpu.op_class::SimdShiftAcc                   0      0.00%     66.67% # Class of executed instruction
system.cpu.op_class::SimdDiv                        0      0.00%     66.67% # Class of executed instruction
system.cpu.op_class::SimdSqrt                       0      0.00%     66.67% # Class of executed instruction
system.cpu.op_class::SimdFloatAdd                   0      0.00%     66.67% # Class of executed instruction
system.cpu.op_class::SimdFloatAlu                   0      0.00%     66.67% # Class of executed instruction
system.cpu.op_class::SimdFloatCmp                   0      0.00%     66.67% # Class of executed instruction
system.cpu.op_class::SimdFloatCvt                   0      0.00%     66.67% # Class of executed instruction
system.cpu.op_class::SimdFloatDiv                   0      0.00%     66.67% # Class of executed instruction
system.cpu.op_class::SimdFloatMisc                  0      0.00%     66.67% # Class of executed instruction
system.cpu.op_class::SimdFloatMult                  0      0.00%     66.67% # Class of executed instruction
system.cpu.op_class::SimdFloatMultAcc               0      0.00%     66.67% # Class of executed instruction
system.cpu.op_class::SimdFloatSqrt                  0      0.00%     66.67% # Class of executed instruction
system.cpu.op_class::SimdReduceAdd                  0      0.00%     66.67% # Class of executed instruction
system.cpu.op_class::SimdReduceAlu                  0      0.00%     66.67% # Class of executed instruction
system.cpu.op_class::SimdReduceCmp                  0      0.00%     66.67% # Class of executed instruction
system.cpu.op_class::SimdFloatReduceAdd             0      0.00%     66.67% # Class of executed instruction
system.cpu.op_class::SimdFloatReduceCmp             0      0.00%     66.67% # Class of executed instruction
system.cpu.op_class::SimdAes                        0      0.00%     66.67% # Class of executed instruction
system.cpu.op_class::SimdAesMix                     0      0.00%     66.67% # Class of executed instruction
system.cpu.op_class::SimdSha1Hash                   0      0.00%     66.67% # Class of executed instruction
system.cpu.op_class::SimdSha1Hash2                  0      0.00%     66.67% # Class of executed instruction
system.cpu.op_class::SimdSha256Hash                 0      0.00%     66.67% # Class of executed instruction
system.cpu.op_class::SimdSha256Hash2                0      0.00%     66.67% # Class of executed instruction
system.cpu.op_class::SimdShaSigma2                  0      0.00%     66.67% # Class of executed instruction
system.cpu.op_class::SimdShaSigma3                  0      0.00%     66.67% # Class of executed instruction
system.cpu.op_class::SimdPredAlu                    0      0.00%     66.67% # Class of executed instruction
system.cpu.op_class::MemRead                        5     23.81%     90.48% # Class of executed instruction
system.cpu.op_class::MemWrite                       2      9.52%    100.00% # Class of executed instruction
system.cpu.op_class::FloatMemRead                   0      0.00%    100.00% # Class of executed instruction
system.cpu.op_class::FloatMemWrite                  0      0.00%    100.00% # Class of executed instruction
system.cpu.op_class::IprAccess                      0      0.00%    100.00% # Class of executed instruction
system.cpu.op_class::InstPrefetch                   0      0.00%    100.00% # Class of executed instruction
system.cpu.op_class::total                         21                       # Class of executed instruction
system.cpu.workload.numSyscalls                     0                       # Number of system calls
system.membus.snoop_filter.hit_multi_requests            0                       # Number of requests hitting in the snoop filter with multiple (>1) holders of the requested data.
system.membus.snoop_filter.hit_multi_snoops            0                       # Number of snoops hitting in the snoop filter with multiple (>1) holders of the requested data.
system.membus.snoop_filter.hit_single_requests       753857                       # Number of requests hitting in the snoop filter with a single holder of the requested data.
system.membus.snoop_filter.hit_single_snoops            0                       # Number of snoops hitting in the snoop filter with a single holder of the requested data.
system.membus.snoop_filter.tot_requests       1509917                       # Total number of requests made to the snoop filter.
system.membus.snoop_filter.tot_snoops               0                       # Total number of snoops made to the snoop filter.
system.switch_cpus.branchPred.BTBCorrect            0                       # Number of correct BTB predictions (this stat may not work properly.
system.switch_cpus.branchPred.BTBHitPct      0.000000                       # BTB Hit Percentage
system.switch_cpus.branchPred.BTBHits               0                       # Number of BTB hits
system.switch_cpus.branchPred.BTBLookups      6652208                       # Number of BTB lookups
system.switch_cpus.branchPred.RASInCorrect            1                       # Number of incorrect RAS predictions.
system.switch_cpus.branchPred.condIncorrect       568189                       # Number of conditional branches incorrect
system.switch_cpus.branchPred.condPredicted      7166473                       # Number of conditional branches predicted
system.switch_cpus.branchPred.indirectHits      2778078                       # Number of indirect target hits.
system.switch_cpus.branchPred.indirectLookups      6652208                       # Number of indirect predictor lookups.
system.switch_cpus.branchPred.indirectMisses      3874130                       # Number of indirect misses.
system.switch_cpus.branchPred.lookups         7325888                       # Number of BP lookups
system.switch_cpus.branchPred.usedRAS           84938                       # Number of times the RAS was used to get a target.
system.switch_cpus.branchPredindirectMispredicted       387183                       # Number of mispredicted indirect branches.
system.switch_cpus.cc_regfile_reads          17849330                       # number of cc regfile reads
system.switch_cpus.cc_regfile_writes         11549870                       # number of cc regfile writes
system.switch_cpus.commit.amos                      0                       # Number of atomic instructions committed
system.switch_cpus.commit.branchMispredicts       568211                       # The number of times a branch was mispredicted
system.switch_cpus.commit.branches            2476523                       # Number of branches committed
system.switch_cpus.commit.bw_lim_events       1010772                       # number cycles where commit BW limit reached
system.switch_cpus.commit.commitSquashedInsts     20251886                       # The number of squashed insts skipped by commit
system.switch_cpus.commit.committedInsts     10000004                       # Number of instructions committed
system.switch_cpus.commit.committedOps       17240038                       # Number of ops (including micro ops) committed
system.switch_cpus.commit.committed_per_cycle::samples     60553554                       # Number of insts commited each cycle
system.switch_cpus.commit.committed_per_cycle::mean     0.284707                       # Number of insts commited each cycle
system.switch_cpus.commit.committed_per_cycle::stdev     1.222951                       # Number of insts commited each cycle
system.switch_cpus.commit.committed_per_cycle::underflows            0      0.00%      0.00% # Number of insts commited each cycle
system.switch_cpus.commit.committed_per_cycle::0     55693534     91.97%     91.97% # Number of insts commited each cycle
system.switch_cpus.commit.committed_per_cycle::1      1702810      2.81%     94.79% # Number of insts commited each cycle
system.switch_cpus.commit.committed_per_cycle::2       420311      0.69%     95.48% # Number of insts commited each cycle
system.switch_cpus.commit.committed_per_cycle::3       918519      1.52%     97.00% # Number of insts commited each cycle
system.switch_cpus.commit.committed_per_cycle::4       411236      0.68%     97.68% # Number of insts commited each cycle
system.switch_cpus.commit.committed_per_cycle::5       235753      0.39%     98.07% # Number of insts commited each cycle
system.switch_cpus.commit.committed_per_cycle::6        93169      0.15%     98.22% # Number of insts commited each cycle
system.switch_cpus.commit.committed_per_cycle::7        67450      0.11%     98.33% # Number of insts commited each cycle
system.switch_cpus.commit.committed_per_cycle::8      1010772      1.67%    100.00% # Number of insts commited each cycle
system.switch_cpus.commit.committed_per_cycle::overflows            0      0.00%    100.00% # Number of insts commited each cycle
system.switch_cpus.commit.committed_per_cycle::min_value            0                       # Number of insts commited each cycle
system.switch_cpus.commit.committed_per_cycle::max_value            8                       # Number of insts commited each cycle
system.switch_cpus.commit.committed_per_cycle::total     60553554                       # Number of insts commited each cycle
system.switch_cpus.commit.fp_insts                  0                       # Number of committed floating point instructions.
system.switch_cpus.commit.function_calls         5900                       # Number of function calls committed.
system.switch_cpus.commit.int_insts          17177966                       # Number of committed integer instructions.
system.switch_cpus.commit.loads               3454882                       # Number of loads committed
system.switch_cpus.commit.membars                   0                       # Number of memory barriers committed
system.switch_cpus.commit.op_class_0::No_OpClass        56255      0.33%      0.33% # Class of committed instruction
system.switch_cpus.commit.op_class_0::IntAlu     13093980     75.95%     76.28% # Class of committed instruction
system.switch_cpus.commit.op_class_0::IntMult          808      0.00%     76.28% # Class of committed instruction
system.switch_cpus.commit.op_class_0::IntDiv            0      0.00%     76.28% # Class of committed instruction
system.switch_cpus.commit.op_class_0::FloatAdd            0      0.00%     76.28% # Class of committed instruction
system.switch_cpus.commit.op_class_0::FloatCmp            0      0.00%     76.28% # Class of committed instruction
system.switch_cpus.commit.op_class_0::FloatCvt            0      0.00%     76.28% # Class of committed instruction
system.switch_cpus.commit.op_class_0::FloatMult            0      0.00%     76.28% # Class of committed instruction
system.switch_cpus.commit.op_class_0::FloatMultAcc            0      0.00%     76.28% # Class of committed instruction
system.switch_cpus.commit.op_class_0::FloatDiv            0      0.00%     76.28% # Class of committed instruction
system.switch_cpus.commit.op_class_0::FloatMisc            0      0.00%     76.28% # Class of committed instruction
system.switch_cpus.commit.op_class_0::FloatSqrt            0      0.00%     76.28% # Class of committed instruction
system.switch_cpus.commit.op_class_0::SimdAdd            0      0.00%     76.28% # Class of committed instruction
system.switch_cpus.commit.op_class_0::SimdAddAcc            0      0.00%     76.28% # Class of committed instruction
system.switch_cpus.commit.op_class_0::SimdAlu            0      0.00%     76.28% # Class of committed instruction
system.switch_cpus.commit.op_class_0::SimdCmp            0      0.00%     76.28% # Class of committed instruction
system.switch_cpus.commit.op_class_0::SimdCvt            0      0.00%     76.28% # Class of committed instruction
system.switch_cpus.commit.op_class_0::SimdMisc            0      0.00%     76.28% # Class of committed instruction
system.switch_cpus.commit.op_class_0::SimdMult            0      0.00%     76.28% # Class of committed instruction
system.switch_cpus.commit.op_class_0::SimdMultAcc            0      0.00%     76.28% # Class of committed instruction
system.switch_cpus.commit.op_class_0::SimdShift            0      0.00%     76.28% # Class of committed instruction
system.switch_cpus.commit.op_class_0::SimdShiftAcc            0      0.00%     76.28% # Class of committed instruction
system.switch_cpus.commit.op_class_0::SimdDiv            0      0.00%     76.28% # Class of committed instruction
system.switch_cpus.commit.op_class_0::SimdSqrt            0      0.00%     76.28% # Class of committed instruction
system.switch_cpus.commit.op_class_0::SimdFloatAdd            0      0.00%     76.28% # Class of committed instruction
system.switch_cpus.commit.op_class_0::SimdFloatAlu            0      0.00%     76.28% # Class of committed instruction
system.switch_cpus.commit.op_class_0::SimdFloatCmp            0      0.00%     76.28% # Class of committed instruction
system.switch_cpus.commit.op_class_0::SimdFloatCvt            0      0.00%     76.28% # Class of committed instruction
system.switch_cpus.commit.op_class_0::SimdFloatDiv            0      0.00%     76.28% # Class of committed instruction
system.switch_cpus.commit.op_class_0::SimdFloatMisc            0      0.00%     76.28% # Class of committed instruction
system.switch_cpus.commit.op_class_0::SimdFloatMult            0      0.00%     76.28% # Class of committed instruction
system.switch_cpus.commit.op_class_0::SimdFloatMultAcc            0      0.00%     76.28% # Class of committed instruction
system.switch_cpus.commit.op_class_0::SimdFloatSqrt            0      0.00%     76.28% # Class of committed instruction
system.switch_cpus.commit.op_class_0::SimdReduceAdd            0      0.00%     76.28% # Class of committed instruction
system.switch_cpus.commit.op_class_0::SimdReduceAlu            0      0.00%     76.28% # Class of committed instruction
system.switch_cpus.commit.op_class_0::SimdReduceCmp            0      0.00%     76.28% # Class of committed instruction
system.switch_cpus.commit.op_class_0::SimdFloatReduceAdd            0      0.00%     76.28% # Class of committed instruction
system.switch_cpus.commit.op_class_0::SimdFloatReduceCmp            0      0.00%     76.28% # Class of committed instruction
system.switch_cpus.commit.op_class_0::SimdAes            0      0.00%     76.28% # Class of committed instruction
system.switch_cpus.commit.op_class_0::SimdAesMix            0      0.00%     76.28% # Class of committed instruction
system.switch_cpus.commit.op_class_0::SimdSha1Hash            0      0.00%     76.28% # Class of committed instruction
system.switch_cpus.commit.op_class_0::SimdSha1Hash2            0      0.00%     76.28% # Class of committed instruction
system.switch_cpus.commit.op_class_0::SimdSha256Hash            0      0.00%     76.28% # Class of committed instruction
system.switch_cpus.commit.op_class_0::SimdSha256Hash2            0      0.00%     76.28% # Class of committed instruction
system.switch_cpus.commit.op_class_0::SimdShaSigma2            0      0.00%     76.28% # Class of committed instruction
system.switch_cpus.commit.op_class_0::SimdShaSigma3            0      0.00%     76.28% # Class of committed instruction
system.switch_cpus.commit.op_class_0::SimdPredAlu            0      0.00%     76.28% # Class of committed instruction
system.switch_cpus.commit.op_class_0::MemRead      3454882     20.04%     96.32% # Class of committed instruction
system.switch_cpus.commit.op_class_0::MemWrite       634113      3.68%    100.00% # Class of committed instruction
system.switch_cpus.commit.op_class_0::FloatMemRead            0      0.00%    100.00% # Class of committed instruction
system.switch_cpus.commit.op_class_0::FloatMemWrite            0      0.00%    100.00% # Class of committed instruction
system.switch_cpus.commit.op_class_0::IprAccess            0      0.00%    100.00% # Class of committed instruction
system.switch_cpus.commit.op_class_0::InstPrefetch            0      0.00%    100.00% # Class of committed instruction
system.switch_cpus.commit.op_class_0::total     17240038                       # Class of committed instruction
system.switch_cpus.commit.refs                4088995                       # Number of memory references committed
system.switch_cpus.commit.swp_count                 0                       # Number of s/w prefetches committed
system.switch_cpus.commit.vec_insts                 0                       # Number of committed Vector instructions.
system.switch_cpus.committedInsts            10000004                       # Number of Instructions Simulated
system.switch_cpus.committedOps              17240038                       # Number of Ops (including micro ops) Simulated
system.switch_cpus.cpi                       6.370494                       # CPI: Cycles Per Instruction
system.switch_cpus.cpi_total                 6.370494                       # CPI: Total CPI of All Threads
system.switch_cpus.decode.BlockedCycles      54329911                       # Number of cycles decode is blocked
system.switch_cpus.decode.DecodedInsts       45125907                       # Number of instructions handled by decode
system.switch_cpus.decode.IdleCycles          2450767                       # Number of cycles decode is idle
system.switch_cpus.decode.RunCycles           4813289                       # Number of cycles decode is running
system.switch_cpus.decode.SquashCycles         568770                       # Number of cycles decode is squashing
system.switch_cpus.decode.UnblockCycles       1538221                       # Number of cycles decode is unblocking
system.switch_cpus.dtb.rdAccesses             5457587                       # TLB accesses on read requests
system.switch_cpus.dtb.rdMisses                786297                       # TLB misses on read requests
system.switch_cpus.dtb.wrAccesses              993215                       # TLB accesses on write requests
system.switch_cpus.dtb.wrMisses                 25412                       # TLB misses on write requests
system.switch_cpus.fetch.Branches             7325888                       # Number of branches that fetch encountered
system.switch_cpus.fetch.CacheLines           2523853                       # Number of cache lines fetched
system.switch_cpus.fetch.Cycles              60310632                       # Number of cycles fetch has run and was not squashing or blocked
system.switch_cpus.fetch.IcacheSquashes        120947                       # Number of outstanding Icache misses that were squashed
system.switch_cpus.fetch.Insts               30250636                       # Number of instructions fetch has processed
system.switch_cpus.fetch.MiscStallCycles           22                       # Number of cycles fetch has spent waiting on interrupts, or bad addresses, or out of MSHRs
system.switch_cpus.fetch.PendingTrapStallCycles          135                       # Number of stall cycles due to pending traps
system.switch_cpus.fetch.SquashCycles         1137540                       # Number of cycles fetch has spent squashing
system.switch_cpus.fetch.branchRate          0.114997                       # Number of branch fetches per cycle
system.switch_cpus.fetch.icacheStallCycles      2821405                       # Number of cycles fetch is stalled on an Icache miss
system.switch_cpus.fetch.predictedBranches      2863016                       # Number of branches that fetch has predicted taken
system.switch_cpus.fetch.rate                0.474855                       # Number of inst fetches per cycle
system.switch_cpus.fetch.rateDist::samples     63700964                       # Number of instructions fetched each cycle (Total)
system.switch_cpus.fetch.rateDist::mean      0.821321                       # Number of instructions fetched each cycle (Total)
system.switch_cpus.fetch.rateDist::stdev     2.244505                       # Number of instructions fetched each cycle (Total)
system.switch_cpus.fetch.rateDist::underflows            0      0.00%      0.00% # Number of instructions fetched each cycle (Total)
system.switch_cpus.fetch.rateDist::0         55049913     86.42%     86.42% # Number of instructions fetched each cycle (Total)
system.switch_cpus.fetch.rateDist::1           409662      0.64%     87.06% # Number of instructions fetched each cycle (Total)
system.switch_cpus.fetch.rateDist::2           600454      0.94%     88.00% # Number of instructions fetched each cycle (Total)
system.switch_cpus.fetch.rateDist::3           559867      0.88%     88.88% # Number of instructions fetched each cycle (Total)
system.switch_cpus.fetch.rateDist::4           867157      1.36%     90.25% # Number of instructions fetched each cycle (Total)
system.switch_cpus.fetch.rateDist::5           992208      1.56%     91.80% # Number of instructions fetched each cycle (Total)
system.switch_cpus.fetch.rateDist::6           391006      0.61%     92.42% # Number of instructions fetched each cycle (Total)
system.switch_cpus.fetch.rateDist::7           392481      0.62%     93.03% # Number of instructions fetched each cycle (Total)
system.switch_cpus.fetch.rateDist::8          4438216      6.97%    100.00% # Number of instructions fetched each cycle (Total)
system.switch_cpus.fetch.rateDist::overflows            0      0.00%    100.00% # Number of instructions fetched each cycle (Total)
system.switch_cpus.fetch.rateDist::min_value            0                       # Number of instructions fetched each cycle (Total)
system.switch_cpus.fetch.rateDist::max_value            8                       # Number of instructions fetched each cycle (Total)
system.switch_cpus.fetch.rateDist::total     63700964                       # Number of instructions fetched each cycle (Total)
system.switch_cpus.fp_regfile_writes               56                       # number of floating regfile writes
system.switch_cpus.idleCycles                    4006                       # Total number of cycles that the CPU has spent unscheduled due to idling
system.switch_cpus.iew.branchMispredicts       744393                       # Number of branch mispredicts detected at execute
system.switch_cpus.iew.exec_branches          3785812                       # Number of branches executed
system.switch_cpus.iew.exec_nop                     0                       # number of nop insts executed
system.switch_cpus.iew.exec_rate             0.577710                       # Inst execution rate
system.switch_cpus.iew.exec_refs             12967263                       # number of memory reference insts executed
system.switch_cpus.iew.exec_stores             993119                       # Number of stores executed
system.switch_cpus.iew.exec_swp                     0                       # number of swp insts executed
system.switch_cpus.iew.iewBlockCycles        26595026                       # Number of cycles IEW is blocking
system.switch_cpus.iew.iewDispLoadInsts       6854198                       # Number of dispatched load instructions
system.switch_cpus.iew.iewDispNonSpecInsts            0                       # Number of dispatched non-speculative instructions
system.switch_cpus.iew.iewDispSquashedInsts        75651                       # Number of squashed instructions skipped by dispatch
system.switch_cpus.iew.iewDispStoreInsts      1507827                       # Number of dispatched store instructions
system.switch_cpus.iew.iewDispatchedInsts     37468076                       # Number of instructions dispatched to IQ
system.switch_cpus.iew.iewExecLoadInsts      11974144                       # Number of load instructions executed
system.switch_cpus.iew.iewExecSquashedInsts      1271103                       # Number of squashed instructions skipped in execute
system.switch_cpus.iew.iewExecutedInsts      36802998                       # Number of executed instructions
system.switch_cpus.iew.iewIQFullEvents         256280                       # Number of times the IQ has become full, causing a stall
system.switch_cpus.iew.iewIdleCycles                0                       # Number of cycles IEW is idle
system.switch_cpus.iew.iewLSQFullEvents       6627638                       # Number of times the LSQ has become full, causing a stall
system.switch_cpus.iew.iewSquashCycles         568770                       # Number of cycles IEW is squashing
system.switch_cpus.iew.iewUnblockCycles       7053589                       # Number of cycles IEW is unblocking
system.switch_cpus.iew.lsq.thread0.blockedLoads            0                       # Number of blocked loads due to partial load-store forwarding
system.switch_cpus.iew.lsq.thread0.cacheBlocked       619255                       # Number of times an access to memory failed due to the cache being blocked
system.switch_cpus.iew.lsq.thread0.forwLoads       116900                       # Number of loads that had data forwarded from stores
system.switch_cpus.iew.lsq.thread0.ignoredResponses          900                       # Number of memory responses ignored because the instruction is squashed
system.switch_cpus.iew.lsq.thread0.invAddrLoads            0                       # Number of loads ignored due to an invalid address
system.switch_cpus.iew.lsq.thread0.invAddrSwpfs            0                       # Number of software prefetches ignored due to an invalid address
system.switch_cpus.iew.lsq.thread0.memOrderViolation         1060                       # Number of memory ordering violations
system.switch_cpus.iew.lsq.thread0.rescheduledLoads            0                       # Number of loads that were rescheduled
system.switch_cpus.iew.lsq.thread0.squashedLoads      3399311                       # Number of loads squashed
system.switch_cpus.iew.lsq.thread0.squashedStores       873712                       # Number of stores squashed
system.switch_cpus.iew.memOrderViolationEvents         1060                       # Number of memory order violations
system.switch_cpus.iew.predictedNotTakenIncorrect       591762                       # Number of branches that were predicted not taken incorrectly
system.switch_cpus.iew.predictedTakenIncorrect       152631                       # Number of branches that were predicted taken incorrectly
system.switch_cpus.iew.wb_consumers          30894132                       # num instructions consuming a value
system.switch_cpus.iew.wb_count              29168161                       # cumulative count of insts written-back
system.switch_cpus.iew.wb_fanout             0.686739                       # average fanout of values written-back
system.switch_cpus.iew.wb_producers          21216191                       # num instructions producing a value
system.switch_cpus.iew.wb_rate               0.457863                       # insts written-back per cycle
system.switch_cpus.iew.wb_sent               29312238                       # cumulative count of insts sent to commit
system.switch_cpus.int_regfile_reads         50862672                       # number of integer regfile reads
system.switch_cpus.int_regfile_writes        24158630                       # number of integer regfile writes
system.switch_cpus.ipc                       0.156974                       # IPC: Instructions Per Cycle
system.switch_cpus.ipc_total                 0.156974                       # IPC: Total IPC of All Threads
system.switch_cpus.iq.FU_type_0::No_OpClass       340247      0.89%      0.89% # Type of FU issued
system.switch_cpus.iq.FU_type_0::IntAlu      24450351     64.22%     65.11% # Type of FU issued
system.switch_cpus.iq.FU_type_0::IntMult         1044      0.00%     65.11% # Type of FU issued
system.switch_cpus.iq.FU_type_0::IntDiv             0      0.00%     65.11% # Type of FU issued
system.switch_cpus.iq.FU_type_0::FloatAdd            0      0.00%     65.11% # Type of FU issued
system.switch_cpus.iq.FU_type_0::FloatCmp            0      0.00%     65.11% # Type of FU issued
system.switch_cpus.iq.FU_type_0::FloatCvt            0      0.00%     65.11% # Type of FU issued
system.switch_cpus.iq.FU_type_0::FloatMult            0      0.00%     65.11% # Type of FU issued
system.switch_cpus.iq.FU_type_0::FloatMultAcc            0      0.00%     65.11% # Type of FU issued
system.switch_cpus.iq.FU_type_0::FloatDiv            0      0.00%     65.11% # Type of FU issued
system.switch_cpus.iq.FU_type_0::FloatMisc            0      0.00%     65.11% # Type of FU issued
system.switch_cpus.iq.FU_type_0::FloatSqrt            0      0.00%     65.11% # Type of FU issued
system.switch_cpus.iq.FU_type_0::SimdAdd            0      0.00%     65.11% # Type of FU issued
system.switch_cpus.iq.FU_type_0::SimdAddAcc            0      0.00%     65.11% # Type of FU issued
system.switch_cpus.iq.FU_type_0::SimdAlu            0      0.00%     65.11% # Type of FU issued
system.switch_cpus.iq.FU_type_0::SimdCmp            0      0.00%     65.11% # Type of FU issued
system.switch_cpus.iq.FU_type_0::SimdCvt            0      0.00%     65.11% # Type of FU issued
system.switch_cpus.iq.FU_type_0::SimdMisc            0      0.00%     65.11% # Type of FU issued
system.switch_cpus.iq.FU_type_0::SimdMult            0      0.00%     65.11% # Type of FU issued
system.switch_cpus.iq.FU_type_0::SimdMultAcc            0      0.00%     65.11% # Type of FU issued
system.switch_cpus.iq.FU_type_0::SimdShift            0      0.00%     65.11% # Type of FU issued
system.switch_cpus.iq.FU_type_0::SimdShiftAcc            0      0.00%     65.11% # Type of FU issued
system.switch_cpus.iq.FU_type_0::SimdDiv            0      0.00%     65.11% # Type of FU issued
system.switch_cpus.iq.FU_type_0::SimdSqrt            0      0.00%     65.11% # Type of FU issued
system.switch_cpus.iq.FU_type_0::SimdFloatAdd            0      0.00%     65.11% # Type of FU issued
system.switch_cpus.iq.FU_type_0::SimdFloatAlu            0      0.00%     65.11% # Type of FU issued
system.switch_cpus.iq.FU_type_0::SimdFloatCmp            0      0.00%     65.11% # Type of FU issued
system.switch_cpus.iq.FU_type_0::SimdFloatCvt            0      0.00%     65.11% # Type of FU issued
system.switch_cpus.iq.FU_type_0::SimdFloatDiv            0      0.00%     65.11% # Type of FU issued
system.switch_cpus.iq.FU_type_0::SimdFloatMisc            0      0.00%     65.11% # Type of FU issued
system.switch_cpus.iq.FU_type_0::SimdFloatMult            0      0.00%     65.11% # Type of FU issued
system.switch_cpus.iq.FU_type_0::SimdFloatMultAcc            0      0.00%     65.11% # Type of FU issued
system.switch_cpus.iq.FU_type_0::SimdFloatSqrt            0      0.00%     65.11% # Type of FU issued
system.switch_cpus.iq.FU_type_0::SimdReduceAdd            0      0.00%     65.11% # Type of FU issued
system.switch_cpus.iq.FU_type_0::SimdReduceAlu            0      0.00%     65.11% # Type of FU issued
system.switch_cpus.iq.FU_type_0::SimdReduceCmp            0      0.00%     65.11% # Type of FU issued
system.switch_cpus.iq.FU_type_0::SimdFloatReduceAdd            0      0.00%     65.11% # Type of FU issued
system.switch_cpus.iq.FU_type_0::SimdFloatReduceCmp            0      0.00%     65.11% # Type of FU issued
system.switch_cpus.iq.FU_type_0::SimdAes            0      0.00%     65.11% # Type of FU issued
system.switch_cpus.iq.FU_type_0::SimdAesMix            0      0.00%     65.11% # Type of FU issued
system.switch_cpus.iq.FU_type_0::SimdSha1Hash            0      0.00%     65.11% # Type of FU issued
system.switch_cpus.iq.FU_type_0::SimdSha1Hash2            0      0.00%     65.11% # Type of FU issued
system.switch_cpus.iq.FU_type_0::SimdSha256Hash            0      0.00%     65.11% # Type of FU issued
system.switch_cpus.iq.FU_type_0::SimdSha256Hash2            0      0.00%     65.11% # Type of FU issued
system.switch_cpus.iq.FU_type_0::SimdShaSigma2            0      0.00%     65.11% # Type of FU issued
system.switch_cpus.iq.FU_type_0::SimdShaSigma3            0      0.00%     65.11% # Type of FU issued
system.switch_cpus.iq.FU_type_0::SimdPredAlu            0      0.00%     65.11% # Type of FU issued
system.switch_cpus.iq.FU_type_0::MemRead     12221454     32.10%     97.21% # Type of FU issued
system.switch_cpus.iq.FU_type_0::MemWrite      1061012      2.79%    100.00% # Type of FU issued
system.switch_cpus.iq.FU_type_0::FloatMemRead            0      0.00%    100.00% # Type of FU issued
system.switch_cpus.iq.FU_type_0::FloatMemWrite            0      0.00%    100.00% # Type of FU issued
system.switch_cpus.iq.FU_type_0::IprAccess            0      0.00%    100.00% # Type of FU issued
system.switch_cpus.iq.FU_type_0::InstPrefetch            0      0.00%    100.00% # Type of FU issued
system.switch_cpus.iq.FU_type_0::total       38074108                       # Type of FU issued
system.switch_cpus.iq.fp_alu_accesses               0                       # Number of floating point alu accesses
system.switch_cpus.iq.fp_inst_queue_reads            0                       # Number of floating instruction queue reads
system.switch_cpus.iq.fp_inst_queue_wakeup_accesses            0                       # Number of floating instruction queue wakeup accesses
system.switch_cpus.iq.fp_inst_queue_writes            0                       # Number of floating instruction queue writes
system.switch_cpus.iq.fu_busy_cnt             1661455                       # FU busy when requested
system.switch_cpus.iq.fu_busy_rate           0.043637                       # FU busy rate (busy events/executed inst)
system.switch_cpus.iq.fu_full::No_OpClass            0      0.00%      0.00% # attempts to use FU when none available
system.switch_cpus.iq.fu_full::IntAlu          281927     16.97%     16.97% # attempts to use FU when none available
system.switch_cpus.iq.fu_full::IntMult              0      0.00%     16.97% # attempts to use FU when none available
system.switch_cpus.iq.fu_full::IntDiv               0      0.00%     16.97% # attempts to use FU when none available
system.switch_cpus.iq.fu_full::FloatAdd             0      0.00%     16.97% # attempts to use FU when none available
system.switch_cpus.iq.fu_full::FloatCmp             0      0.00%     16.97% # attempts to use FU when none available
system.switch_cpus.iq.fu_full::FloatCvt             0      0.00%     16.97% # attempts to use FU when none available
system.switch_cpus.iq.fu_full::FloatMult            0      0.00%     16.97% # attempts to use FU when none available
system.switch_cpus.iq.fu_full::FloatMultAcc            0      0.00%     16.97% # attempts to use FU when none available
system.switch_cpus.iq.fu_full::FloatDiv             0      0.00%     16.97% # attempts to use FU when none available
system.switch_cpus.iq.fu_full::FloatMisc            0      0.00%     16.97% # attempts to use FU when none available
system.switch_cpus.iq.fu_full::FloatSqrt            0      0.00%     16.97% # attempts to use FU when none available
system.switch_cpus.iq.fu_full::SimdAdd              0      0.00%     16.97% # attempts to use FU when none available
system.switch_cpus.iq.fu_full::SimdAddAcc            0      0.00%     16.97% # attempts to use FU when none available
system.switch_cpus.iq.fu_full::SimdAlu              0      0.00%     16.97% # attempts to use FU when none available
system.switch_cpus.iq.fu_full::SimdCmp              0      0.00%     16.97% # attempts to use FU when none available
system.switch_cpus.iq.fu_full::SimdCvt              0      0.00%     16.97% # attempts to use FU when none available
system.switch_cpus.iq.fu_full::SimdMisc             0      0.00%     16.97% # attempts to use FU when none available
system.switch_cpus.iq.fu_full::SimdMult             0      0.00%     16.97% # attempts to use FU when none available
system.switch_cpus.iq.fu_full::SimdMultAcc            0      0.00%     16.97% # attempts to use FU when none available
system.switch_cpus.iq.fu_full::SimdShift            0      0.00%     16.97% # attempts to use FU when none available
system.switch_cpus.iq.fu_full::SimdShiftAcc            0      0.00%     16.97% # attempts to use FU when none available
system.switch_cpus.iq.fu_full::SimdDiv              0      0.00%     16.97% # attempts to use FU when none available
system.switch_cpus.iq.fu_full::SimdSqrt             0      0.00%     16.97% # attempts to use FU when none available
system.switch_cpus.iq.fu_full::SimdFloatAdd            0      0.00%     16.97% # attempts to use FU when none available
system.switch_cpus.iq.fu_full::SimdFloatAlu            0      0.00%     16.97% # attempts to use FU when none available
system.switch_cpus.iq.fu_full::SimdFloatCmp            0      0.00%     16.97% # attempts to use FU when none available
system.switch_cpus.iq.fu_full::SimdFloatCvt            0      0.00%     16.97% # attempts to use FU when none available
system.switch_cpus.iq.fu_full::SimdFloatDiv            0      0.00%     16.97% # attempts to use FU when none available
system.switch_cpus.iq.fu_full::SimdFloatMisc            0      0.00%     16.97% # attempts to use FU when none available
system.switch_cpus.iq.fu_full::SimdFloatMult            0      0.00%     16.97% # attempts to use FU when none available
system.switch_cpus.iq.fu_full::SimdFloatMultAcc            0      0.00%     16.97% # attempts to use FU when none available
system.switch_cpus.iq.fu_full::SimdFloatSqrt            0      0.00%     16.97% # attempts to use FU when none available
system.switch_cpus.iq.fu_full::SimdReduceAdd            0      0.00%     16.97% # attempts to use FU when none available
system.switch_cpus.iq.fu_full::SimdReduceAlu            0      0.00%     16.97% # attempts to use FU when none available
system.switch_cpus.iq.fu_full::SimdReduceCmp            0      0.00%     16.97% # attempts to use FU when none available
system.switch_cpus.iq.fu_full::SimdFloatReduceAdd            0      0.00%     16.97% # attempts to use FU when none available
system.switch_cpus.iq.fu_full::SimdFloatReduceCmp            0      0.00%     16.97% # attempts to use FU when none available
system.switch_cpus.iq.fu_full::SimdAes              0      0.00%     16.97% # attempts to use FU when none available
system.switch_cpus.iq.fu_full::SimdAesMix            0      0.00%     16.97% # attempts to use FU when none available
system.switch_cpus.iq.fu_full::SimdSha1Hash            0      0.00%     16.97% # attempts to use FU when none available
system.switch_cpus.iq.fu_full::SimdSha1Hash2            0      0.00%     16.97% # attempts to use FU when none available
system.switch_cpus.iq.fu_full::SimdSha256Hash            0      0.00%     16.97% # attempts to use FU when none available
system.switch_cpus.iq.fu_full::SimdSha256Hash2            0      0.00%     16.97% # attempts to use FU when none available
system.switch_cpus.iq.fu_full::SimdShaSigma2            0      0.00%     16.97% # attempts to use FU when none available
system.switch_cpus.iq.fu_full::SimdShaSigma3            0      0.00%     16.97% # attempts to use FU when none available
system.switch_cpus.iq.fu_full::SimdPredAlu            0      0.00%     16.97% # attempts to use FU when none available
system.switch_cpus.iq.fu_full::MemRead        1338413     80.56%     97.53% # attempts to use FU when none available
system.switch_cpus.iq.fu_full::MemWrite         41115      2.47%    100.00% # attempts to use FU when none available
system.switch_cpus.iq.fu_full::FloatMemRead            0      0.00%    100.00% # attempts to use FU when none available
system.switch_cpus.iq.fu_full::FloatMemWrite            0      0.00%    100.00% # attempts to use FU when none available
system.switch_cpus.iq.fu_full::IprAccess            0      0.00%    100.00% # attempts to use FU when none available
system.switch_cpus.iq.fu_full::InstPrefetch            0      0.00%    100.00% # attempts to use FU when none available
system.switch_cpus.iq.int_alu_accesses       39395316                       # Number of integer alu accesses
system.switch_cpus.iq.int_inst_queue_reads    142039431                       # Number of integer instruction queue reads
system.switch_cpus.iq.int_inst_queue_wakeup_accesses     29168161                       # Number of integer instruction queue wakeup accesses
system.switch_cpus.iq.int_inst_queue_writes     57696810                       # Number of integer instruction queue writes
system.switch_cpus.iq.iqInstsAdded           37468076                       # Number of instructions added to the IQ (excludes non-spec)
system.switch_cpus.iq.iqInstsIssued          38074108                       # Number of instructions issued
system.switch_cpus.iq.iqSquashedInstsExamined     20228001                       # Number of squashed instructions iterated over during squash; mainly for profiling
system.switch_cpus.iq.iqSquashedInstsIssued       528803                       # Number of squashed instructions issued
system.switch_cpus.iq.iqSquashedOperandsExamined     27973248                       # Number of squashed operands that are examined and possibly removed from graph
system.switch_cpus.iq.issued_per_cycle::samples     63700964                       # Number of insts issued each cycle
system.switch_cpus.iq.issued_per_cycle::mean     0.597701                       # Number of insts issued each cycle
system.switch_cpus.iq.issued_per_cycle::stdev     1.524991                       # Number of insts issued each cycle
system.switch_cpus.iq.issued_per_cycle::underflows            0      0.00%      0.00% # Number of insts issued each cycle
system.switch_cpus.iq.issued_per_cycle::0     51996958     81.63%     81.63% # Number of insts issued each cycle
system.switch_cpus.iq.issued_per_cycle::1      3339901      5.24%     86.87% # Number of insts issued each cycle
system.switch_cpus.iq.issued_per_cycle::2      1698547      2.67%     89.54% # Number of insts issued each cycle
system.switch_cpus.iq.issued_per_cycle::3      1547382      2.43%     91.97% # Number of insts issued each cycle
system.switch_cpus.iq.issued_per_cycle::4      1905486      2.99%     94.96% # Number of insts issued each cycle
system.switch_cpus.iq.issued_per_cycle::5      1337664      2.10%     97.06% # Number of insts issued each cycle
system.switch_cpus.iq.issued_per_cycle::6      1070369      1.68%     98.74% # Number of insts issued each cycle
system.switch_cpus.iq.issued_per_cycle::7       474767      0.75%     99.48% # Number of insts issued each cycle
system.switch_cpus.iq.issued_per_cycle::8       329890      0.52%    100.00% # Number of insts issued each cycle
system.switch_cpus.iq.issued_per_cycle::overflows            0      0.00%    100.00% # Number of insts issued each cycle
system.switch_cpus.iq.issued_per_cycle::min_value            0                       # Number of insts issued each cycle
system.switch_cpus.iq.issued_per_cycle::max_value            8                       # Number of insts issued each cycle
system.switch_cpus.iq.issued_per_cycle::total     63700964                       # Number of insts issued each cycle
system.switch_cpus.iq.rate                   0.597663                       # Inst issue rate
system.switch_cpus.iq.vec_alu_accesses              0                       # Number of vector alu accesses
system.switch_cpus.iq.vec_inst_queue_reads            0                       # Number of vector instruction queue reads
system.switch_cpus.iq.vec_inst_queue_wakeup_accesses            0                       # Number of vector instruction queue wakeup accesses
system.switch_cpus.iq.vec_inst_queue_writes            0                       # Number of vector instruction queue writes
system.switch_cpus.itb.rdAccesses                   0                       # TLB accesses on read requests
system.switch_cpus.itb.rdMisses                     0                       # TLB misses on read requests
system.switch_cpus.itb.wrAccesses             2523876                       # TLB accesses on write requests
system.switch_cpus.itb.wrMisses                    26                       # TLB misses on write requests
system.switch_cpus.memDep0.conflictingLoads       478642                       # Number of conflicting loads.
system.switch_cpus.memDep0.conflictingStores       541918                       # Number of conflicting stores.
system.switch_cpus.memDep0.insertedLoads      6854198                       # Number of loads inserted to the mem dependence unit.
system.switch_cpus.memDep0.insertedStores      1507827                       # Number of stores inserted to the mem dependence unit.
system.switch_cpus.misc_regfile_reads        21918448                       # number of misc regfile reads
system.switch_cpus.misc_regfile_writes              1                       # number of misc regfile writes
system.switch_cpus.numCycles                 63704970                       # number of cpu cycles simulated
system.switch_cpus.numWorkItemsCompleted            0                       # number of work items this cpu completed
system.switch_cpus.numWorkItemsStarted              0                       # number of work items this cpu started
system.switch_cpus.rename.BlockCycles        40719772                       # Number of cycles rename is blocking
system.switch_cpus.rename.CommittedMaps      21411880                       # Number of HB maps that are committed
system.switch_cpus.rename.IQFullEvents        6018234                       # Number of times rename has blocked due to IQ full
system.switch_cpus.rename.IdleCycles          3151020                       # Number of cycles rename is idle
system.switch_cpus.rename.LQFullEvents       11029155                       # Number of times rename has blocked due to LQ full
system.switch_cpus.rename.ROBFullEvents        266807                       # Number of times rename has blocked due to ROB full
system.switch_cpus.rename.RenameLookups     108796194                       # Number of register rename lookups that rename has made
system.switch_cpus.rename.RenamedInsts       42296710                       # Number of instructions processed by rename
system.switch_cpus.rename.RenamedOperands     51552901                       # Number of destination operands rename has renamed
system.switch_cpus.rename.RunCycles           5336467                       # Number of cycles rename is running
system.switch_cpus.rename.SQFullEvents         127059                       # Number of times rename has blocked due to SQ full
system.switch_cpus.rename.SquashCycles         568770                       # Number of cycles rename is squashing
system.switch_cpus.rename.UnblockCycles      13920496                       # Number of cycles rename is unblocking
system.switch_cpus.rename.UndoneMaps         30140957                       # Number of HB maps that are undone due to squashing
system.switch_cpus.rename.int_rename_lookups     58387682                       # Number of integer rename lookups
system.switch_cpus.rename.serializeStallCycles         4433                       # count of cycles rename stalled for serializing inst
system.switch_cpus.rename.serializingInsts         6744                       # count of serializing insts renamed
system.switch_cpus.rename.skidInsts           8065378                       # count of insts added to the skid buffer
system.switch_cpus.rename.tempSerializingInsts         6707                       # count of temporary serializing insts renamed
system.switch_cpus.rob.rob_reads             97034706                       # The number of ROB reads
system.switch_cpus.rob.rob_writes            78165571                       # The number of ROB writes
system.switch_cpus.timesIdled                      51                       # Number of times that the entire CPU went into an idle state and unscheduled itself
system.tol2bus.snoop_filter.hit_multi_requests            0                       # Number of requests hitting in the snoop filter with multiple (>1) holders of the requested data.
system.tol2bus.snoop_filter.hit_multi_snoops            0                       # Number of snoops hitting in the snoop filter with multiple (>1) holders of the requested data.
system.tol2bus.snoop_filter.hit_single_requests       956135                       # Number of requests hitting in the snoop filter with a single holder of the requested data.
system.tol2bus.snoop_filter.hit_single_snoops       377660                       # Number of snoops hitting in the snoop filter with a single holder of the requested data.
system.tol2bus.snoop_filter.tot_requests      1913356                       # Total number of requests made to the snoop filter.
system.tol2bus.snoop_filter.tot_snoops         377660                       # Total number of snoops made to the snoop filter.
system.membus.pwrStateResidencyTicks::UNDEFINED 164636479139500                       # Cumulative time (in ticks) in various power states
system.membus.trans_dist::ReadResp             746771                       # Transaction distribution
system.membus.trans_dist::WritebackDirty        90674                       # Transaction distribution
system.membus.trans_dist::CleanEvict           663183                       # Transaction distribution
system.membus.trans_dist::ReadExReq              9289                       # Transaction distribution
system.membus.trans_dist::ReadExResp             9289                       # Transaction distribution
system.membus.trans_dist::ReadSharedReq        746771                       # Transaction distribution
system.membus.pkt_count_system.l2.mem_side::system.mem_ctrls.port      2265977                       # Packet count per connected master and slave (bytes)
system.membus.pkt_count_system.l2.mem_side::total      2265977                       # Packet count per connected master and slave (bytes)
system.membus.pkt_count::total                2265977                       # Packet count per connected master and slave (bytes)
system.membus.pkt_size_system.l2.mem_side::system.mem_ctrls.port     54190976                       # Cumulative packet size per connected master and slave (bytes)
system.membus.pkt_size_system.l2.mem_side::total     54190976                       # Cumulative packet size per connected master and slave (bytes)
system.membus.pkt_size::total                54190976                       # Cumulative packet size per connected master and slave (bytes)
system.membus.snoops                                0                       # Total snoops (count)
system.membus.snoopTraffic                          0                       # Total snoop traffic (bytes)
system.membus.snoop_fanout::samples            756060                       # Request fanout histogram
system.membus.snoop_fanout::mean                    0                       # Request fanout histogram
system.membus.snoop_fanout::stdev                   0                       # Request fanout histogram
system.membus.snoop_fanout::underflows              0      0.00%      0.00% # Request fanout histogram
system.membus.snoop_fanout::0                  756060    100.00%    100.00% # Request fanout histogram
system.membus.snoop_fanout::1                       0      0.00%    100.00% # Request fanout histogram
system.membus.snoop_fanout::overflows               0      0.00%    100.00% # Request fanout histogram
system.membus.snoop_fanout::min_value               0                       # Request fanout histogram
system.membus.snoop_fanout::max_value               0                       # Request fanout histogram
system.membus.snoop_fanout::total              756060                       # Request fanout histogram
system.membus.reqLayer2.occupancy          2004386000                       # Layer occupancy (ticks)
system.membus.reqLayer2.utilization               6.3                       # Layer utilization (%)
system.membus.respLayer1.occupancy         4190023000                       # Layer occupancy (ticks)
system.membus.respLayer1.utilization             13.2                       # Layer utilization (%)
system.switch_cpus.pwrStateResidencyTicks::OFF  31852495750                       # Cumulative time (in ticks) in various power states
system.switch_cpus.dtb.walker.pwrStateResidencyTicks::UNDEFINED 164636479139500                       # Cumulative time (in ticks) in various power states
system.switch_cpus.itb.walker.pwrStateResidencyTicks::UNDEFINED 164636479139500                       # Cumulative time (in ticks) in various power states
system.tol2bus.pwrStateResidencyTicks::UNDEFINED 164636479139500                       # Cumulative time (in ticks) in various power states
system.tol2bus.trans_dist::ReadResp            936350                       # Transaction distribution
system.tol2bus.trans_dist::WritebackDirty       248534                       # Transaction distribution
system.tol2bus.trans_dist::CleanEvict         1535397                       # Transaction distribution
system.tol2bus.trans_dist::ReadExReq            20871                       # Transaction distribution
system.tol2bus.trans_dist::ReadExResp           20871                       # Transaction distribution
system.tol2bus.trans_dist::ReadCleanReq            62                       # Transaction distribution
system.tol2bus.trans_dist::ReadSharedReq       936288                       # Transaction distribution
system.tol2bus.pkt_count_system.cpu.icache.mem_side::system.l2.cpu_side          124                       # Packet count per connected master and slave (bytes)
system.tol2bus.pkt_count_system.cpu.dcache.mem_side::system.l2.cpu_side      2870453                       # Packet count per connected master and slave (bytes)
system.tol2bus.pkt_count::total               2870577                       # Packet count per connected master and slave (bytes)
system.tol2bus.pkt_size_system.cpu.icache.mem_side::system.l2.cpu_side         3968                       # Cumulative packet size per connected master and slave (bytes)
system.tol2bus.pkt_size_system.cpu.dcache.mem_side::system.l2.cpu_side     71361216                       # Cumulative packet size per connected master and slave (bytes)
system.tol2bus.pkt_size::total               71365184                       # Cumulative packet size per connected master and slave (bytes)
system.tol2bus.snoops                          827796                       # Total snoops (count)
system.tol2bus.snoopTraffic                   5803136                       # Total snoop traffic (bytes)
system.tol2bus.snoop_fanout::samples          1785017                       # Request fanout histogram
system.tol2bus.snoop_fanout::mean            0.211572                       # Request fanout histogram
system.tol2bus.snoop_fanout::stdev           0.408423                       # Request fanout histogram
system.tol2bus.snoop_fanout::underflows             0      0.00%      0.00% # Request fanout histogram
system.tol2bus.snoop_fanout::0                1407357     78.84%     78.84% # Request fanout histogram
system.tol2bus.snoop_fanout::1                 377660     21.16%    100.00% # Request fanout histogram
system.tol2bus.snoop_fanout::2                      0      0.00%    100.00% # Request fanout histogram
system.tol2bus.snoop_fanout::3                      0      0.00%    100.00% # Request fanout histogram
system.tol2bus.snoop_fanout::4                      0      0.00%    100.00% # Request fanout histogram
system.tol2bus.snoop_fanout::overflows              0      0.00%    100.00% # Request fanout histogram
system.tol2bus.snoop_fanout::min_value              0                       # Request fanout histogram
system.tol2bus.snoop_fanout::max_value              1                       # Request fanout histogram
system.tol2bus.snoop_fanout::total            1785017                       # Request fanout histogram
system.tol2bus.reqLayer0.occupancy         1114535000                       # Layer occupancy (ticks)
system.tol2bus.reqLayer0.utilization              3.5                       # Layer utilization (%)
system.tol2bus.respLayer1.occupancy        1435731000                       # Layer occupancy (ticks)
system.tol2bus.respLayer1.utilization             4.5                       # Layer utilization (%)
system.tol2bus.respLayer0.occupancy             91500                       # Layer occupancy (ticks)
system.tol2bus.respLayer0.utilization             0.0                       # Layer utilization (%)
system.voltage_domain.voltage                       1                       # Voltage in Volts
system.clk_domain.clock                          1000                       # Clock period in ticks
system.l2.pwrStateResidencyTicks::UNDEFINED 164636479139500                       # Cumulative time (in ticks) in various power states
system.l2.demand_hits::.switch_cpus.data       201161                       # number of demand (read+write) hits
system.l2.demand_hits::total                   201161                       # number of demand (read+write) hits
system.l2.overall_hits::.switch_cpus.data       201161                       # number of overall hits
system.l2.overall_hits::total                  201161                       # number of overall hits
system.l2.demand_misses::.cpu.inst                  1                       # number of demand (read+write) misses
system.l2.demand_misses::.cpu.data                  5                       # number of demand (read+write) misses
system.l2.demand_misses::.switch_cpus.inst           61                       # number of demand (read+write) misses
system.l2.demand_misses::.switch_cpus.data       755993                       # number of demand (read+write) misses
system.l2.demand_misses::total                 756060                       # number of demand (read+write) misses
system.l2.overall_misses::.cpu.inst                 1                       # number of overall misses
system.l2.overall_misses::.cpu.data                 5                       # number of overall misses
system.l2.overall_misses::.switch_cpus.inst           61                       # number of overall misses
system.l2.overall_misses::.switch_cpus.data       755993                       # number of overall misses
system.l2.overall_misses::total                756060                       # number of overall misses
system.l2.demand_miss_latency::.switch_cpus.inst      5300500                       # number of demand (read+write) miss cycles
system.l2.demand_miss_latency::.switch_cpus.data  75477562000                       # number of demand (read+write) miss cycles
system.l2.demand_miss_latency::total      75482862500                       # number of demand (read+write) miss cycles
system.l2.overall_miss_latency::.switch_cpus.inst      5300500                       # number of overall miss cycles
system.l2.overall_miss_latency::.switch_cpus.data  75477562000                       # number of overall miss cycles
system.l2.overall_miss_latency::total     75482862500                       # number of overall miss cycles
system.l2.demand_accesses::.cpu.inst                1                       # number of demand (read+write) accesses
system.l2.demand_accesses::.cpu.data                5                       # number of demand (read+write) accesses
system.l2.demand_accesses::.switch_cpus.inst           61                       # number of demand (read+write) accesses
system.l2.demand_accesses::.switch_cpus.data       957154                       # number of demand (read+write) accesses
system.l2.demand_accesses::total               957221                       # number of demand (read+write) accesses
system.l2.overall_accesses::.cpu.inst               1                       # number of overall (read+write) accesses
system.l2.overall_accesses::.cpu.data               5                       # number of overall (read+write) accesses
system.l2.overall_accesses::.switch_cpus.inst           61                       # number of overall (read+write) accesses
system.l2.overall_accesses::.switch_cpus.data       957154                       # number of overall (read+write) accesses
system.l2.overall_accesses::total              957221                       # number of overall (read+write) accesses
system.l2.demand_miss_rate::.cpu.inst               1                       # miss rate for demand accesses
system.l2.demand_miss_rate::.cpu.data               1                       # miss rate for demand accesses
system.l2.demand_miss_rate::.switch_cpus.inst            1                       # miss rate for demand accesses
system.l2.demand_miss_rate::.switch_cpus.data     0.789834                       # miss rate for demand accesses
system.l2.demand_miss_rate::total            0.789849                       # miss rate for demand accesses
system.l2.overall_miss_rate::.cpu.inst              1                       # miss rate for overall accesses
system.l2.overall_miss_rate::.cpu.data              1                       # miss rate for overall accesses
system.l2.overall_miss_rate::.switch_cpus.inst            1                       # miss rate for overall accesses
system.l2.overall_miss_rate::.switch_cpus.data     0.789834                       # miss rate for overall accesses
system.l2.overall_miss_rate::total           0.789849                       # miss rate for overall accesses
system.l2.demand_avg_miss_latency::.switch_cpus.inst 86893.442623                       # average overall miss latency
system.l2.demand_avg_miss_latency::.switch_cpus.data 99838.969408                       # average overall miss latency
system.l2.demand_avg_miss_latency::total 99837.132635                       # average overall miss latency
system.l2.overall_avg_miss_latency::.switch_cpus.inst 86893.442623                       # average overall miss latency
system.l2.overall_avg_miss_latency::.switch_cpus.data 99838.969408                       # average overall miss latency
system.l2.overall_avg_miss_latency::total 99837.132635                       # average overall miss latency
system.l2.blocked_cycles::no_mshrs                  0                       # number of cycles access was blocked
system.l2.blocked_cycles::no_targets                0                       # number of cycles access was blocked
system.l2.blocked::no_mshrs                         0                       # number of cycles access was blocked
system.l2.blocked::no_targets                       0                       # number of cycles access was blocked
system.l2.avg_blocked_cycles::no_mshrs            nan                       # average number of cycles each access was blocked
system.l2.avg_blocked_cycles::no_targets          nan                       # average number of cycles each access was blocked
system.l2.writebacks::.writebacks               90674                       # number of writebacks
system.l2.writebacks::total                     90674                       # number of writebacks
system.l2.demand_mshr_misses::.switch_cpus.inst           61                       # number of demand (read+write) MSHR misses
system.l2.demand_mshr_misses::.switch_cpus.data       755993                       # number of demand (read+write) MSHR misses
system.l2.demand_mshr_misses::total            756054                       # number of demand (read+write) MSHR misses
system.l2.overall_mshr_misses::.switch_cpus.inst           61                       # number of overall MSHR misses
system.l2.overall_mshr_misses::.switch_cpus.data       755993                       # number of overall MSHR misses
system.l2.overall_mshr_misses::total           756054                       # number of overall MSHR misses
system.l2.demand_mshr_miss_latency::.switch_cpus.inst      4690500                       # number of demand (read+write) MSHR miss cycles
system.l2.demand_mshr_miss_latency::.switch_cpus.data  67917632000                       # number of demand (read+write) MSHR miss cycles
system.l2.demand_mshr_miss_latency::total  67922322500                       # number of demand (read+write) MSHR miss cycles
system.l2.overall_mshr_miss_latency::.switch_cpus.inst      4690500                       # number of overall MSHR miss cycles
system.l2.overall_mshr_miss_latency::.switch_cpus.data  67917632000                       # number of overall MSHR miss cycles
system.l2.overall_mshr_miss_latency::total  67922322500                       # number of overall MSHR miss cycles
system.l2.demand_mshr_miss_rate::.switch_cpus.inst            1                       # mshr miss rate for demand accesses
system.l2.demand_mshr_miss_rate::.switch_cpus.data     0.789834                       # mshr miss rate for demand accesses
system.l2.demand_mshr_miss_rate::total       0.789843                       # mshr miss rate for demand accesses
system.l2.overall_mshr_miss_rate::.switch_cpus.inst            1                       # mshr miss rate for overall accesses
system.l2.overall_mshr_miss_rate::.switch_cpus.data     0.789834                       # mshr miss rate for overall accesses
system.l2.overall_mshr_miss_rate::total      0.789843                       # mshr miss rate for overall accesses
system.l2.demand_avg_mshr_miss_latency::.switch_cpus.inst 76893.442623                       # average overall mshr miss latency
system.l2.demand_avg_mshr_miss_latency::.switch_cpus.data 89838.969408                       # average overall mshr miss latency
system.l2.demand_avg_mshr_miss_latency::total 89837.924937                       # average overall mshr miss latency
system.l2.overall_avg_mshr_miss_latency::.switch_cpus.inst 76893.442623                       # average overall mshr miss latency
system.l2.overall_avg_mshr_miss_latency::.switch_cpus.data 89838.969408                       # average overall mshr miss latency
system.l2.overall_avg_mshr_miss_latency::total 89837.924937                       # average overall mshr miss latency
system.l2.replacements                         827796                       # number of replacements
system.l2.WritebackDirty_hits::.writebacks       157860                       # number of WritebackDirty hits
system.l2.WritebackDirty_hits::total           157860                       # number of WritebackDirty hits
system.l2.WritebackDirty_accesses::.writebacks       157860                       # number of WritebackDirty accesses(hits+misses)
system.l2.WritebackDirty_accesses::total       157860                       # number of WritebackDirty accesses(hits+misses)
system.l2.CleanEvict_mshr_misses::.writebacks       303721                       # number of CleanEvict MSHR misses
system.l2.CleanEvict_mshr_misses::total        303721                       # number of CleanEvict MSHR misses
system.l2.CleanEvict_mshr_miss_rate::.writebacks          inf                       # mshr miss rate for CleanEvict accesses
system.l2.CleanEvict_mshr_miss_rate::total          inf                       # mshr miss rate for CleanEvict accesses
system.l2.ReadExReq_hits::.switch_cpus.data        11582                       # number of ReadExReq hits
system.l2.ReadExReq_hits::total                 11582                       # number of ReadExReq hits
system.l2.ReadExReq_misses::.switch_cpus.data         9289                       # number of ReadExReq misses
system.l2.ReadExReq_misses::total                9289                       # number of ReadExReq misses
system.l2.ReadExReq_miss_latency::.switch_cpus.data    767741500                       # number of ReadExReq miss cycles
system.l2.ReadExReq_miss_latency::total     767741500                       # number of ReadExReq miss cycles
system.l2.ReadExReq_accesses::.switch_cpus.data        20871                       # number of ReadExReq accesses(hits+misses)
system.l2.ReadExReq_accesses::total             20871                       # number of ReadExReq accesses(hits+misses)
system.l2.ReadExReq_miss_rate::.switch_cpus.data     0.445067                       # miss rate for ReadExReq accesses
system.l2.ReadExReq_miss_rate::total         0.445067                       # miss rate for ReadExReq accesses
system.l2.ReadExReq_avg_miss_latency::.switch_cpus.data 82650.608246                       # average ReadExReq miss latency
system.l2.ReadExReq_avg_miss_latency::total 82650.608246                       # average ReadExReq miss latency
system.l2.ReadExReq_mshr_misses::.switch_cpus.data         9289                       # number of ReadExReq MSHR misses
system.l2.ReadExReq_mshr_misses::total           9289                       # number of ReadExReq MSHR misses
system.l2.ReadExReq_mshr_miss_latency::.switch_cpus.data    674851500                       # number of ReadExReq MSHR miss cycles
system.l2.ReadExReq_mshr_miss_latency::total    674851500                       # number of ReadExReq MSHR miss cycles
system.l2.ReadExReq_mshr_miss_rate::.switch_cpus.data     0.445067                       # mshr miss rate for ReadExReq accesses
system.l2.ReadExReq_mshr_miss_rate::total     0.445067                       # mshr miss rate for ReadExReq accesses
system.l2.ReadExReq_avg_mshr_miss_latency::.switch_cpus.data 72650.608246                       # average ReadExReq mshr miss latency
system.l2.ReadExReq_avg_mshr_miss_latency::total 72650.608246                       # average ReadExReq mshr miss latency
system.l2.ReadCleanReq_misses::.cpu.inst            1                       # number of ReadCleanReq misses
system.l2.ReadCleanReq_misses::.switch_cpus.inst           61                       # number of ReadCleanReq misses
system.l2.ReadCleanReq_misses::total               62                       # number of ReadCleanReq misses
system.l2.ReadCleanReq_miss_latency::.switch_cpus.inst      5300500                       # number of ReadCleanReq miss cycles
system.l2.ReadCleanReq_miss_latency::total      5300500                       # number of ReadCleanReq miss cycles
system.l2.ReadCleanReq_accesses::.cpu.inst            1                       # number of ReadCleanReq accesses(hits+misses)
system.l2.ReadCleanReq_accesses::.switch_cpus.inst           61                       # number of ReadCleanReq accesses(hits+misses)
system.l2.ReadCleanReq_accesses::total             62                       # number of ReadCleanReq accesses(hits+misses)
system.l2.ReadCleanReq_miss_rate::.cpu.inst            1                       # miss rate for ReadCleanReq accesses
system.l2.ReadCleanReq_miss_rate::.switch_cpus.inst            1                       # miss rate for ReadCleanReq accesses
system.l2.ReadCleanReq_miss_rate::total             1                       # miss rate for ReadCleanReq accesses
system.l2.ReadCleanReq_avg_miss_latency::.switch_cpus.inst 86893.442623                       # average ReadCleanReq miss latency
system.l2.ReadCleanReq_avg_miss_latency::total 85491.935484                       # average ReadCleanReq miss latency
system.l2.ReadCleanReq_mshr_misses::.switch_cpus.inst           61                       # number of ReadCleanReq MSHR misses
system.l2.ReadCleanReq_mshr_misses::total           61                       # number of ReadCleanReq MSHR misses
system.l2.ReadCleanReq_mshr_miss_latency::.switch_cpus.inst      4690500                       # number of ReadCleanReq MSHR miss cycles
system.l2.ReadCleanReq_mshr_miss_latency::total      4690500                       # number of ReadCleanReq MSHR miss cycles
system.l2.ReadCleanReq_mshr_miss_rate::.switch_cpus.inst            1                       # mshr miss rate for ReadCleanReq accesses
system.l2.ReadCleanReq_mshr_miss_rate::total     0.983871                       # mshr miss rate for ReadCleanReq accesses
system.l2.ReadCleanReq_avg_mshr_miss_latency::.switch_cpus.inst 76893.442623                       # average ReadCleanReq mshr miss latency
system.l2.ReadCleanReq_avg_mshr_miss_latency::total 76893.442623                       # average ReadCleanReq mshr miss latency
system.l2.ReadSharedReq_hits::.switch_cpus.data       189579                       # number of ReadSharedReq hits
system.l2.ReadSharedReq_hits::total            189579                       # number of ReadSharedReq hits
system.l2.ReadSharedReq_misses::.cpu.data            5                       # number of ReadSharedReq misses
[...]
system.cpu.dtb.walker.pwrStateResidencyTicks::UNDEFINED 164731309587500                       # Cumulative time (in ticks) in various power states
system.cpu.interrupts.clk_domain.clock           8000                       # Clock period in ticks
system.cpu.itb_walker_cache.pwrStateResidencyTicks::UNDEFINED 164731309587500                       # Cumulative time (in ticks) in various power states
system.cpu.itb_walker_cache.blocked_cycles::no_mshrs            0                       # number of cycles access was blocked
system.cpu.itb_walker_cache.blocked_cycles::no_targets            0                       # number of cycles access was blocked
system.cpu.itb_walker_cache.blocked::no_mshrs            0                       # number of cycles access was blocked
system.cpu.itb_walker_cache.blocked::no_targets            0                       # number of cycles access was blocked
system.cpu.itb_walker_cache.avg_blocked_cycles::no_mshrs          nan                       # average number of cycles each access was blocked
system.cpu.itb_walker_cache.avg_blocked_cycles::no_targets          nan                       # average number of cycles each access was blocked
system.cpu.itb_walker_cache.replacements            0                       # number of replacements
system.cpu.itb_walker_cache.tags.pwrStateResidencyTicks::UNDEFINED 164731309587500                       # Cumulative time (in ticks) in various power states
system.cpu.itb_walker_cache.tags.tagsinuse            0                       # Cycle average of tags in use
system.cpu.itb_walker_cache.tags.total_refs            0                       # Total number of references to valid blocks.
system.cpu.itb_walker_cache.tags.sampled_refs            0                       # Sample count of references to valid blocks.
system.cpu.itb_walker_cache.tags.avg_refs          nan                       # Average number of references to valid blocks.
system.cpu.itb_walker_cache.tags.warmup_cycle            0                       # Cycle when the warmup percentage was hit.
system.cpu.itb_walker_cache.tags.tag_accesses            0                       # Number of tag accesses
system.cpu.itb_walker_cache.tags.data_accesses            0                       # Number of data accesses
system.cpu.itb.walker.pwrStateResidencyTicks::UNDEFINED 164731309587500                       # Cumulative time (in ticks) in various power states
system.cpu.dtb_walker_cache.pwrStateResidencyTicks::UNDEFINED 164731309587500                       # Cumulative time (in ticks) in various power states
system.cpu.dtb_walker_cache.blocked_cycles::no_mshrs            0                       # number of cycles access was blocked
system.cpu.dtb_walker_cache.blocked_cycles::no_targets            0                       # number of cycles access was blocked
system.cpu.dtb_walker_cache.blocked::no_mshrs            0                       # number of cycles access was blocked
system.cpu.dtb_walker_cache.blocked::no_targets            0                       # number of cycles access was blocked
system.cpu.dtb_walker_cache.avg_blocked_cycles::no_mshrs          nan                       # average number of cycles each access was blocked
system.cpu.dtb_walker_cache.avg_blocked_cycles::no_targets          nan                       # average number of cycles each access was blocked
system.cpu.dtb_walker_cache.replacements            0                       # number of replacements
system.cpu.dtb_walker_cache.tags.pwrStateResidencyTicks::UNDEFINED 164731309587500                       # Cumulative time (in ticks) in various power states
system.cpu.dtb_walker_cache.tags.tagsinuse            0                       # Cycle average of tags in use
system.cpu.dtb_walker_cache.tags.total_refs            0                       # Total number of references to valid blocks.
system.cpu.dtb_walker_cache.tags.sampled_refs            0                       # Sample count of references to valid blocks.
system.cpu.dtb_walker_cache.tags.avg_refs          nan                       # Average number of references to valid blocks.
system.cpu.dtb_walker_cache.tags.warmup_cycle            0                       # Cycle when the warmup percentage was hit.
system.cpu.dtb_walker_cache.tags.tag_accesses            0                       # Number of tag accesses
system.cpu.dtb_walker_cache.tags.data_accesses            0                       # Number of data accesses
system.cpu.dcache.pwrStateResidencyTicks::UNDEFINED 164731309587500                       # Cumulative time (in ticks) in various power states
system.cpu.dcache.demand_hits::.cpu.data            2                       # number of demand (read+write) hits
system.cpu.dcache.demand_hits::.switch_cpus.data     14568955                       # number of demand (read+write) hits
system.cpu.dcache.demand_hits::total         14568957                       # number of demand (read+write) hits
system.cpu.dcache.overall_hits::.cpu.data            2                       # number of overall hits
system.cpu.dcache.overall_hits::.switch_cpus.data     14568955                       # number of overall hits
system.cpu.dcache.overall_hits::total        14568957                       # number of overall hits
system.cpu.dcache.demand_misses::.cpu.data            5                       # number of demand (read+write) misses
system.cpu.dcache.demand_misses::.switch_cpus.data      7922082                       # number of demand (read+write) misses
system.cpu.dcache.demand_misses::total        7922087                       # number of demand (read+write) misses
system.cpu.dcache.overall_misses::.cpu.data            5                       # number of overall misses
system.cpu.dcache.overall_misses::.switch_cpus.data      7922082                       # number of overall misses
system.cpu.dcache.overall_misses::total       7922087                       # number of overall misses
system.cpu.dcache.demand_miss_latency::.switch_cpus.data 574556631059                       # number of demand (read+write) miss cycles
system.cpu.dcache.demand_miss_latency::total 574556631059                       # number of demand (read+write) miss cycles
system.cpu.dcache.overall_miss_latency::.switch_cpus.data 574556631059                       # number of overall miss cycles
system.cpu.dcache.overall_miss_latency::total 574556631059                       # number of overall miss cycles
system.cpu.dcache.demand_accesses::.cpu.data            7                       # number of demand (read+write) accesses
system.cpu.dcache.demand_accesses::.switch_cpus.data     22491037                       # number of demand (read+write) accesses
system.cpu.dcache.demand_accesses::total     22491044                       # number of demand (read+write) accesses
system.cpu.dcache.overall_accesses::.cpu.data            7                       # number of overall (read+write) accesses
system.cpu.dcache.overall_accesses::.switch_cpus.data     22491037                       # number of overall (read+write) accesses
system.cpu.dcache.overall_accesses::total     22491044                       # number of overall (read+write) accesses
system.cpu.dcache.demand_miss_rate::.cpu.data     0.714286                       # miss rate for demand accesses
system.cpu.dcache.demand_miss_rate::.switch_cpus.data     0.352233                       # miss rate for demand accesses
system.cpu.dcache.demand_miss_rate::total     0.352233                       # miss rate for demand accesses
system.cpu.dcache.overall_miss_rate::.cpu.data     0.714286                       # miss rate for overall accesses
system.cpu.dcache.overall_miss_rate::.switch_cpus.data     0.352233                       # miss rate for overall accesses
system.cpu.dcache.overall_miss_rate::total     0.352233                       # miss rate for overall accesses
system.cpu.dcache.demand_avg_miss_latency::.switch_cpus.data 72525.963637                       # average overall miss latency
system.cpu.dcache.demand_avg_miss_latency::total 72525.917862                       # average overall miss latency
system.cpu.dcache.overall_avg_miss_latency::.switch_cpus.data 72525.963637                       # average overall miss latency
system.cpu.dcache.overall_avg_miss_latency::total 72525.917862                       # average overall miss latency
system.cpu.dcache.blocked_cycles::no_mshrs    103126461                       # number of cycles access was blocked
system.cpu.dcache.blocked_cycles::no_targets         1423                       # number of cycles access was blocked
system.cpu.dcache.blocked::no_mshrs           2404140                       # number of cycles access was blocked
system.cpu.dcache.blocked::no_targets              38                       # number of cycles access was blocked
system.cpu.dcache.avg_blocked_cycles::no_mshrs    42.895364                       # average number of cycles each access was blocked
system.cpu.dcache.avg_blocked_cycles::no_targets    37.447368                       # average number of cycles each access was blocked
system.cpu.dcache.writebacks::.writebacks       662235                       # number of writebacks
system.cpu.dcache.writebacks::total            662235                       # number of writebacks
system.cpu.dcache.demand_mshr_hits::.switch_cpus.data      4162605                       # number of demand (read+write) MSHR hits
system.cpu.dcache.demand_mshr_hits::total      4162605                       # number of demand (read+write) MSHR hits
system.cpu.dcache.overall_mshr_hits::.switch_cpus.data      4162605                       # number of overall MSHR hits
system.cpu.dcache.overall_mshr_hits::total      4162605                       # number of overall MSHR hits
system.cpu.dcache.demand_mshr_misses::.switch_cpus.data      3759477                       # number of demand (read+write) MSHR misses
system.cpu.dcache.demand_mshr_misses::total      3759477                       # number of demand (read+write) MSHR misses
system.cpu.dcache.overall_mshr_misses::.switch_cpus.data      3759477                       # number of overall MSHR misses
system.cpu.dcache.overall_mshr_misses::total      3759477                       # number of overall MSHR misses
system.cpu.dcache.demand_mshr_miss_latency::.switch_cpus.data 309662014772                       # number of demand (read+write) MSHR miss cycles
system.cpu.dcache.demand_mshr_miss_latency::total 309662014772                       # number of demand (read+write) MSHR miss cycles
system.cpu.dcache.overall_mshr_miss_latency::.switch_cpus.data 309662014772                       # number of overall MSHR miss cycles
system.cpu.dcache.overall_mshr_miss_latency::total 309662014772                       # number of overall MSHR miss cycles
system.cpu.dcache.demand_mshr_miss_rate::.switch_cpus.data     0.167154                       # mshr miss rate for demand accesses
system.cpu.dcache.demand_mshr_miss_rate::total     0.167154                       # mshr miss rate for demand accesses
system.cpu.dcache.overall_mshr_miss_rate::.switch_cpus.data     0.167154                       # mshr miss rate for overall accesses
system.cpu.dcache.overall_mshr_miss_rate::total     0.167154                       # mshr miss rate for overall accesses
system.cpu.dcache.demand_avg_mshr_miss_latency::.switch_cpus.data 82368.375913                       # average overall mshr miss latency
system.cpu.dcache.demand_avg_mshr_miss_latency::total 82368.375913                       # average overall mshr miss latency
system.cpu.dcache.overall_avg_mshr_miss_latency::.switch_cpus.data 82368.375913                       # average overall mshr miss latency
system.cpu.dcache.overall_avg_mshr_miss_latency::total 82368.375913                       # average overall mshr miss latency
system.cpu.dcache.replacements                3758458                       # number of replacements
system.cpu.dcache.ReadReq_hits::.switch_cpus.data     12093157                       # number of ReadReq hits
system.cpu.dcache.ReadReq_hits::total        12093157                       # number of ReadReq hits
system.cpu.dcache.ReadReq_misses::.cpu.data            5                       # number of ReadReq misses
system.cpu.dcache.ReadReq_misses::.switch_cpus.data      7831607                       # number of ReadReq misses
system.cpu.dcache.ReadReq_misses::total       7831612                       # number of ReadReq misses
system.cpu.dcache.ReadReq_miss_latency::.switch_cpus.data 570667140500                       # number of ReadReq miss cycles
system.cpu.dcache.ReadReq_miss_latency::total 570667140500                       # number of ReadReq miss cycles
system.cpu.dcache.ReadReq_accesses::.cpu.data            5                       # number of ReadReq accesses(hits+misses)
system.cpu.dcache.ReadReq_accesses::.switch_cpus.data     19924764                       # number of ReadReq accesses(hits+misses)
system.cpu.dcache.ReadReq_accesses::total     19924769                       # number of ReadReq accesses(hits+misses)
system.cpu.dcache.ReadReq_miss_rate::.cpu.data            1                       # miss rate for ReadReq accesses
system.cpu.dcache.ReadReq_miss_rate::.switch_cpus.data     0.393059                       # miss rate for ReadReq accesses
system.cpu.dcache.ReadReq_miss_rate::total     0.393059                       # miss rate for ReadReq accesses
system.cpu.dcache.ReadReq_avg_miss_latency::.switch_cpus.data 72867.183006                       # average ReadReq miss latency
system.cpu.dcache.ReadReq_avg_miss_latency::total 72867.136485                       # average ReadReq miss latency
system.cpu.dcache.ReadReq_mshr_hits::.switch_cpus.data      4160908                       # number of ReadReq MSHR hits
system.cpu.dcache.ReadReq_mshr_hits::total      4160908                       # number of ReadReq MSHR hits
system.cpu.dcache.ReadReq_mshr_misses::.switch_cpus.data      3670699                       # number of ReadReq MSHR misses
system.cpu.dcache.ReadReq_mshr_misses::total      3670699                       # number of ReadReq MSHR misses
system.cpu.dcache.ReadReq_mshr_miss_latency::.switch_cpus.data 305890516000                       # number of ReadReq MSHR miss cycles
system.cpu.dcache.ReadReq_mshr_miss_latency::total 305890516000                       # number of ReadReq MSHR miss cycles
system.cpu.dcache.ReadReq_mshr_miss_rate::.switch_cpus.data     0.184228                       # mshr miss rate for ReadReq accesses
system.cpu.dcache.ReadReq_mshr_miss_rate::total     0.184228                       # mshr miss rate for ReadReq accesses
system.cpu.dcache.ReadReq_avg_mshr_miss_latency::.switch_cpus.data 83333.042562                       # average ReadReq mshr miss latency
system.cpu.dcache.ReadReq_avg_mshr_miss_latency::total 83333.042562                       # average ReadReq mshr miss latency
system.cpu.dcache.WriteReq_hits::.cpu.data            2                       # number of WriteReq hits
system.cpu.dcache.WriteReq_hits::.switch_cpus.data      2475798                       # number of WriteReq hits
system.cpu.dcache.WriteReq_hits::total        2475800                       # number of WriteReq hits
system.cpu.dcache.WriteReq_misses::.switch_cpus.data        90475                       # number of WriteReq misses
system.cpu.dcache.WriteReq_misses::total        90475                       # number of WriteReq misses
system.cpu.dcache.WriteReq_miss_latency::.switch_cpus.data   3889490559                       # number of WriteReq miss cycles
system.cpu.dcache.WriteReq_miss_latency::total   3889490559                       # number of WriteReq miss cycles
system.cpu.dcache.WriteReq_accesses::.cpu.data            2                       # number of WriteReq accesses(hits+misses)
system.cpu.dcache.WriteReq_accesses::.switch_cpus.data      2566273                       # number of WriteReq accesses(hits+misses)
system.cpu.dcache.WriteReq_accesses::total      2566275                       # number of WriteReq accesses(hits+misses)
system.cpu.dcache.WriteReq_miss_rate::.switch_cpus.data     0.035255                       # miss rate for WriteReq accesses
system.cpu.dcache.WriteReq_miss_rate::total     0.035255                       # miss rate for WriteReq accesses
system.cpu.dcache.WriteReq_avg_miss_latency::.switch_cpus.data 42989.671832                       # average WriteReq miss latency
system.cpu.dcache.WriteReq_avg_miss_latency::total 42989.671832                       # average WriteReq miss latency
system.cpu.dcache.WriteReq_mshr_hits::.switch_cpus.data         1697                       # number of WriteReq MSHR hits
system.cpu.dcache.WriteReq_mshr_hits::total         1697                       # number of WriteReq MSHR hits
system.cpu.dcache.WriteReq_mshr_misses::.switch_cpus.data        88778                       # number of WriteReq MSHR misses
system.cpu.dcache.WriteReq_mshr_misses::total        88778                       # number of WriteReq MSHR misses
system.cpu.dcache.WriteReq_mshr_miss_latency::.switch_cpus.data   3771498772                       # number of WriteReq MSHR miss cycles
system.cpu.dcache.WriteReq_mshr_miss_latency::total   3771498772                       # number of WriteReq MSHR miss cycles
system.cpu.dcache.WriteReq_mshr_miss_rate::.switch_cpus.data     0.034594                       # mshr miss rate for WriteReq accesses
system.cpu.dcache.WriteReq_mshr_miss_rate::total     0.034594                       # mshr miss rate for WriteReq accesses
system.cpu.dcache.WriteReq_avg_mshr_miss_latency::.switch_cpus.data 42482.357927                       # average WriteReq mshr miss latency
system.cpu.dcache.WriteReq_avg_mshr_miss_latency::total 42482.357927                       # average WriteReq mshr miss latency
system.cpu.dcache.tags.pwrStateResidencyTicks::UNDEFINED 164731309587500                       # Cumulative time (in ticks) in various power states
system.cpu.dcache.tags.tagsinuse             0.787352                       # Cycle average of tags in use
system.cpu.dcache.tags.total_refs            18328439                       # Total number of references to valid blocks.
system.cpu.dcache.tags.sampled_refs           3759482                       # Sample count of references to valid blocks.
system.cpu.dcache.tags.avg_refs              4.875256                       # Average number of references to valid blocks.
system.cpu.dcache.tags.warmup_cycle      164604626644500                       # Cycle when the warmup percentage was hit.
system.cpu.dcache.tags.occ_blocks::.cpu.data     0.000002                       # Average occupied blocks per requestor
system.cpu.dcache.tags.occ_blocks::.switch_cpus.data     0.787351                       # Average occupied blocks per requestor
system.cpu.dcache.tags.occ_percent::.cpu.data     0.000000                       # Average percentage of cache occupancy
system.cpu.dcache.tags.occ_percent::.switch_cpus.data     0.000769                       # Average percentage of cache occupancy
system.cpu.dcache.tags.occ_percent::total     0.000769                       # Average percentage of cache occupancy
system.cpu.dcache.tags.occ_task_id_blocks::1024         1024                       # Occupied blocks per task id
system.cpu.dcache.tags.age_task_id_blocks_1024::0          165                       # Occupied blocks per task id
system.cpu.dcache.tags.age_task_id_blocks_1024::1          779                       # Occupied blocks per task id
system.cpu.dcache.tags.age_task_id_blocks_1024::2           80                       # Occupied blocks per task id
system.cpu.dcache.tags.occ_task_id_percent::1024            1                       # Percentage of cache occupancy per task id
system.cpu.dcache.tags.tag_accesses          48741570                       # Number of tag accesses
system.cpu.dcache.tags.data_accesses         48741570                       # Number of data accesses

---------- End Simulation Statistics   ----------
