
---------- Begin Simulation Statistics ----------
final_tick                               92826367502000                       # Number of ticks from beginning of simulation (restored from checkpoints and never reset)
host_inst_rate                                  27249                       # Simulator instruction rate (inst/s)
host_mem_usage                                 827584                       # Number of bytes of host memory used
host_op_rate                                    44155                       # Simulator op (including micro ops) rate (op/s)
host_seconds                                   366.99                       # Real time elapsed on the host
host_tick_rate                              123359631                       # Simulator tick rate (ticks/s)
sim_freq                                 1000000000000                       # Frequency of simulated ticks
sim_insts                                    10000010                       # Number of instructions simulated
sim_ops                                      16204568                       # Number of ops (including micro ops) simulated
sim_seconds                                  0.045272                       # Number of seconds simulated
sim_ticks                                 45272075750                       # Number of ticks simulated
system.cpu.Branches                                 3                       # Number of branches fetched
system.cpu.committedInsts                          10                       # Number of instructions committed
system.cpu.committedOps                            18                       # Number of ops (including micro ops) committed
system.cpu.dtb.rdAccesses                           4                       # TLB accesses on read requests
system.cpu.dtb.rdMisses                             0                       # TLB misses on read requests
system.cpu.dtb.wrAccesses                           0                       # TLB accesses on write requests
system.cpu.dtb.wrMisses                             0                       # TLB misses on write requests
system.cpu.idle_fraction                            0                       # Percentage of idle cycles
system.cpu.itb.rdAccesses                           0                       # TLB accesses on read requests
system.cpu.itb.rdMisses                             0                       # TLB misses on read requests
system.cpu.itb.wrAccesses                          13                       # TLB accesses on write requests
system.cpu.itb.wrMisses                             0                       # TLB misses on write requests
system.cpu.not_idle_fraction                        1                       # Percentage of non-idle cycles
system.cpu.numCycles                               21                       # number of cpu cycles simulated
system.cpu.numWorkItemsCompleted                    0                       # number of work items this cpu completed
system.cpu.numWorkItemsStarted                      0                       # number of work items this cpu started
system.cpu.num_busy_cycles                         21                       # Number of busy cycles
system.cpu.num_cc_register_reads                   16                       # number of times the CC registers were read
system.cpu.num_cc_register_writes                   8                       # number of times the CC registers were written
system.cpu.num_conditional_control_insts            3                       # number of instructions that are conditional controls
system.cpu.num_fp_alu_accesses                      0                       # Number of float alu accesses
system.cpu.num_fp_insts                             0                       # number of float instructions
system.cpu.num_fp_register_reads                    0                       # number of times the floating registers were read
system.cpu.num_fp_register_writes                   0                       # number of times the floating registers were written
system.cpu.num_func_calls                           0                       # number of times a function call or return occured
system.cpu.num_idle_cycles                          0                       # Number of idle cycles
system.cpu.num_int_alu_accesses                    18                       # Number of integer alu accesses
system.cpu.num_int_insts                           18                       # number of integer instructions
system.cpu.num_int_register_reads                  33                       # number of times the integer registers were read
system.cpu.num_int_register_writes                 15                       # number of times the integer registers were written
system.cpu.num_load_insts                           4                       # Number of load instructions
system.cpu.num_mem_refs                             4                       # number of memory refs
system.cpu.num_store_insts                          0                       # Number of store instructions
system.cpu.num_vec_alu_accesses                     0                       # Number of vector alu accesses
system.cpu.num_vec_insts                            0                       # number of vector instructions
system.cpu.num_vec_register_reads                   0                       # number of times the vector registers were read
system.cpu.num_vec_register_writes                  0                       # number of times the vector registers were written
system.cpu.op_class::No_OpClass                     0      0.00%      0.00% # Class of executed instruction
system.cpu.op_class::IntAlu                        14     77.78%     77.78% # Class of executed instruction
system.cpu.op_class::IntMult                        0      0.00%     77.78% # Class of executed instruction
system.cpu.op_class::IntDiv                         0      0.00%     77.78% # Class of executed instruction
system.cpu.op_class::FloatAdd                       0      0.00%     77.78% # Class of executed instruction
system.cpu.op_class::FloatCmp                       0      0.00%     77.78% # Class of executed instruction
system.cpu.op_class::FloatCvt                       0      0.00%     77.78% # Class of executed instruction
system.cpu.op_class::FloatMult                      0      0.00%     77.78% # Class of executed instruction
system.cpu.op_class::FloatMultAcc                   0      0.00%     77.78% # Class of executed instruction
system.cpu.op_class::FloatDiv                       0      0.00%     77.78% # Class of executed instruction
system.cpu.op_class::FloatMisc                      0      0.00%     77.78% # Class of executed instruction
system.cpu.op_class::FloatSqrt                      0      0.00%     77.78% # Class of executed instruction
system.cpu.op_class::SimdAdd                        0      0.00%     77.78% # Class of executed instruction
system.cpu.op_class::SimdAddAcc                     0      0.00%     77.78% # Class of executed instruction
system.cpu.op_class::SimdAlu                        0      0.00%     77.78% # Class of executed instruction
system.cpu.op_class::SimdCmp                        0      0.00%     77.78% # Class of executed instruction
system.cpu.op_class::SimdCvt                        0      0.00%     77.78% # Class of executed instruction
system.cpu.op_class::SimdMisc                       0      0.00%     77.78% # Class of executed instruction
system.cpu.op_class::SimdMult                       0      0.00%     77.78% # Class of executed instruction
system.cpu.op_class::SimdMultAcc                    0      0.00%     77.78% # Class of executed instruction
system.cpu.op_class::SimdShift                      0      0.00%     77.78% # Class of executed instruction
system.cpu.op_class::SimdShiftAcc                   0      0.00%     77.78% # Class of executed instruction
system.cpu.op_class::SimdDiv                        0      0.00%     77.78% # Class of executed instruction
system.cpu.op_class::SimdSqrt                       0      0.00%     77.78% # Class of executed instruction
system.cpu.op_class::SimdFloatAdd                   0      0.00%     77.78% # Class of executed instruction
system.cpu.op_class::SimdFloatAlu                   0      0.00%     77.78% # Class of executed instruction
system.cpu.op_class::SimdFloatCmp                   0      0.00%     77.78% # Class of executed instruction
system.cpu.op_class::SimdFloatCvt                   0      0.00%     77.78% # Class of executed instruction
system.cpu.op_class::SimdFloatDiv                   0      0.00%     77.78% # Class of executed instruction
system.cpu.op_class::SimdFloatMisc                  0      0.00%     77.78% # Class of executed instruction
system.cpu.op_class::SimdFloatMult                  0      0.00%     77.78% # Class of executed instruction
system.cpu.op_class::SimdFloatMultAcc               0      0.00%     77.78% # Class of executed instruction
system.cpu.op_class::SimdFloatSqrt                  0      0.00%     77.78% # Class of executed instruction
system.cpu.op_class::SimdReduceAdd                  0      0.00%     77.78% # Class of executed instruction
system.cpu.op_class::SimdReduceAlu                  0      0.00%     77.78% # Class of executed instruction
system.cpu.op_class::SimdReduceCmp                  0      0.00%     77.78% # Class of executed instruction
system.cpu.op_class::SimdFloatReduceAdd             0      0.00%     77.78% # Class of executed instruction
system.cpu.op_class::SimdFloatReduceCmp             0      0.00%     77.78% # Class of executed instruction
system.cpu.op_class::SimdAes                        0      0.00%     77.78% # Class of executed instruction
system.cpu.op_class::SimdAesMix                     0      0.00%     77.78% # Class of executed instruction
system.cpu.op_class::SimdSha1Hash                   0      0.00%     77.78% # Class of executed instruction
system.cpu.op_class::SimdSha1Hash2                  0      0.00%     77.78% # Class of executed instruction
system.cpu.op_class::SimdSha256Hash                 0      0.00%     77.78% # Class of executed instruction
system.cpu.op_class::SimdSha256Hash2                0      0.00%     77.78% # Class of executed instruction
system.cpu.op_class::SimdShaSigma2                  0      0.00%     77.78% # Class of executed instruction
system.cpu.op_class::SimdShaSigma3                  0      0.00%     77.78% # Class of executed instruction
system.cpu.op_class::SimdPredAlu                    0      0.00%     77.78% # Class of executed instruction
system.cpu.op_class::MemRead                        4     22.22%    100.00% # Class of executed instruction
system.cpu.op_class::MemWrite                       0      0.00%    100.00% # Class of executed instruction
system.cpu.op_class::FloatMemRead                   0      0.00%    100.00% # Class of executed instruction
system.cpu.op_class::FloatMemWrite                  0      0.00%    100.00% # Class of executed instruction
system.cpu.op_class::IprAccess                      0      0.00%    100.00% # Class of executed instruction
system.cpu.op_class::InstPrefetch                   0      0.00%    100.00% # Class of executed instruction
system.cpu.op_class::total                         18                       # Class of executed instruction
system.cpu.workload.numSyscalls                     0                       # Number of system calls
system.l2.prefetcher.num_hwpf_issued           165411                       # number of hwpf issued
system.l2.prefetcher.pfBufferHit                   70                       # number of redundant prefetches already in prefetch queue
system.l2.prefetcher.pfIdentified              165529                       # number of prefetch candidates identified
system.l2.prefetcher.pfInCache                      0                       # number of redundant prefetches already in cache/mshr dropped
system.l2.prefetcher.pfRemovedFull                  0                       # number of prefetches dropped due to prefetch queue size
system.l2.prefetcher.pfSpanPage                 24043                       # number of prefetches that crossed the page
system.membus.snoop_filter.hit_multi_requests            0                       # Number of requests hitting in the snoop filter with multiple (>1) holders of the requested data.
system.membus.snoop_filter.hit_multi_snoops            0                       # Number of snoops hitting in the snoop filter with multiple (>1) holders of the requested data.
system.membus.snoop_filter.hit_single_requests      1029996                       # Number of requests hitting in the snoop filter with a single holder of the requested data.
system.membus.snoop_filter.hit_single_snoops            0                       # Number of snoops hitting in the snoop filter with a single holder of the requested data.
system.membus.snoop_filter.tot_requests       2064242                       # Total number of requests made to the snoop filter.
system.membus.snoop_filter.tot_snoops               0                       # Total number of snoops made to the snoop filter.
system.switch_cpus.branchPred.BTBCorrect            0                       # Number of correct BTB predictions (this stat may not work properly.
system.switch_cpus.branchPred.BTBHitPct      0.000000                       # BTB Hit Percentage
system.switch_cpus.branchPred.BTBHits               0                       # Number of BTB hits
system.switch_cpus.branchPred.BTBLookups      2107223                       # Number of BTB lookups
system.switch_cpus.branchPred.RASInCorrect            0                       # Number of incorrect RAS predictions.
system.switch_cpus.branchPred.condIncorrect       186140                       # Number of conditional branches incorrect
system.switch_cpus.branchPred.condPredicted      4403603                       # Number of conditional branches predicted
system.switch_cpus.branchPred.indirectHits      1621989                       # Number of indirect target hits.
system.switch_cpus.branchPred.indirectLookups      2107223                       # Number of indirect predictor lookups.
system.switch_cpus.branchPred.indirectMisses       485234                       # Number of indirect misses.
system.switch_cpus.branchPred.lookups         4413151                       # Number of BP lookups
system.switch_cpus.branchPred.usedRAS             265                       # Number of times the RAS was used to get a target.
system.switch_cpus.branchPredindirectMispredicted        32018                       # Number of mispredicted indirect branches.
system.switch_cpus.cc_regfile_reads          13074543                       # number of cc regfile reads
system.switch_cpus.cc_regfile_writes          9560656                       # number of cc regfile writes
system.switch_cpus.commit.amos                      0                       # Number of atomic instructions committed
system.switch_cpus.commit.branchMispredicts       186149                       # The number of times a branch was mispredicted
system.switch_cpus.commit.branches            1904056                       # Number of branches committed
system.switch_cpus.commit.bw_lim_events        703885                       # number cycles where commit BW limit reached
system.switch_cpus.commit.commitSquashedInsts     15498877                       # The number of squashed insts skipped by commit
system.switch_cpus.commit.committedInsts     10000000                       # Number of instructions committed
system.switch_cpus.commit.committedOps       16204550                       # Number of ops (including micro ops) committed
system.switch_cpus.commit.committed_per_cycle::samples     88384227                       # Number of insts commited each cycle
system.switch_cpus.commit.committed_per_cycle::mean     0.183342                       # Number of insts commited each cycle
system.switch_cpus.commit.committed_per_cycle::stdev     0.911688                       # Number of insts commited each cycle
system.switch_cpus.commit.committed_per_cycle::underflows            0      0.00%      0.00% # Number of insts commited each cycle
system.switch_cpus.commit.committed_per_cycle::0     82678462     93.54%     93.54% # Number of insts commited each cycle
system.switch_cpus.commit.committed_per_cycle::1      2227273      2.52%     96.06% # Number of insts commited each cycle
system.switch_cpus.commit.committed_per_cycle::2      1233184      1.40%     97.46% # Number of insts commited each cycle
system.switch_cpus.commit.committed_per_cycle::3       778117      0.88%     98.34% # Number of insts commited each cycle
system.switch_cpus.commit.committed_per_cycle::4       497414      0.56%     98.90% # Number of insts commited each cycle
system.switch_cpus.commit.committed_per_cycle::5       102563      0.12%     99.02% # Number of insts commited each cycle
system.switch_cpus.commit.committed_per_cycle::6       100296      0.11%     99.13% # Number of insts commited each cycle
system.switch_cpus.commit.committed_per_cycle::7        63033      0.07%     99.20% # Number of insts commited each cycle
system.switch_cpus.commit.committed_per_cycle::8       703885      0.80%    100.00% # Number of insts commited each cycle
system.switch_cpus.commit.committed_per_cycle::overflows            0      0.00%    100.00% # Number of insts commited each cycle
system.switch_cpus.commit.committed_per_cycle::min_value            0                       # Number of insts commited each cycle
system.switch_cpus.commit.committed_per_cycle::max_value            8                       # Number of insts commited each cycle
system.switch_cpus.commit.committed_per_cycle::total     88384227                       # Number of insts commited each cycle
system.switch_cpus.commit.fp_insts                  0                       # Number of committed floating point instructions.
system.switch_cpus.commit.function_calls            0                       # Number of function calls committed.
system.switch_cpus.commit.int_insts          16204186                       # Number of committed integer instructions.
system.switch_cpus.commit.loads               3567032                       # Number of loads committed
system.switch_cpus.commit.membars                   0                       # Number of memory barriers committed
system.switch_cpus.commit.op_class_0::No_OpClass            0      0.00%      0.00% # Class of committed instruction
system.switch_cpus.commit.op_class_0::IntAlu     11575705     71.43%     71.43% # Class of committed instruction
system.switch_cpus.commit.op_class_0::IntMult            0      0.00%     71.43% # Class of committed instruction
system.switch_cpus.commit.op_class_0::IntDiv            0      0.00%     71.43% # Class of committed instruction
system.switch_cpus.commit.op_class_0::FloatAdd            0      0.00%     71.43% # Class of committed instruction
system.switch_cpus.commit.op_class_0::FloatCmp            0      0.00%     71.43% # Class of committed instruction
system.switch_cpus.commit.op_class_0::FloatCvt            0      0.00%     71.43% # Class of committed instruction
system.switch_cpus.commit.op_class_0::FloatMult            0      0.00%     71.43% # Class of committed instruction
system.switch_cpus.commit.op_class_0::FloatMultAcc            0      0.00%     71.43% # Class of committed instruction
system.switch_cpus.commit.op_class_0::FloatDiv            0      0.00%     71.43% # Class of committed instruction
system.switch_cpus.commit.op_class_0::FloatMisc            0      0.00%     71.43% # Class of committed instruction
system.switch_cpus.commit.op_class_0::FloatSqrt            0      0.00%     71.43% # Class of committed instruction
system.switch_cpus.commit.op_class_0::SimdAdd            0      0.00%     71.43% # Class of committed instruction
system.switch_cpus.commit.op_class_0::SimdAddAcc            0      0.00%     71.43% # Class of committed instruction
system.switch_cpus.commit.op_class_0::SimdAlu            0      0.00%     71.43% # Class of committed instruction
system.switch_cpus.commit.op_class_0::SimdCmp            0      0.00%     71.43% # Class of committed instruction
system.switch_cpus.commit.op_class_0::SimdCvt            0      0.00%     71.43% # Class of committed instruction
system.switch_cpus.commit.op_class_0::SimdMisc            0      0.00%     71.43% # Class of committed instruction
system.switch_cpus.commit.op_class_0::SimdMult            0      0.00%     71.43% # Class of committed instruction
system.switch_cpus.commit.op_class_0::SimdMultAcc            0      0.00%     71.43% # Class of committed instruction
system.switch_cpus.commit.op_class_0::SimdShift            0      0.00%     71.43% # Class of committed instruction
system.switch_cpus.commit.op_class_0::SimdShiftAcc            0      0.00%     71.43% # Class of committed instruction
system.switch_cpus.commit.op_class_0::SimdDiv            0      0.00%     71.43% # Class of committed instruction
system.switch_cpus.commit.op_class_0::SimdSqrt            0      0.00%     71.43% # Class of committed instruction
system.switch_cpus.commit.op_class_0::SimdFloatAdd            0      0.00%     71.43% # Class of committed instruction
system.switch_cpus.commit.op_class_0::SimdFloatAlu            0      0.00%     71.43% # Class of committed instruction
system.switch_cpus.commit.op_class_0::SimdFloatCmp            0      0.00%     71.43% # Class of committed instruction
system.switch_cpus.commit.op_class_0::SimdFloatCvt            0      0.00%     71.43% # Class of committed instruction
system.switch_cpus.commit.op_class_0::SimdFloatDiv            0      0.00%     71.43% # Class of committed instruction
system.switch_cpus.commit.op_class_0::SimdFloatMisc            0      0.00%     71.43% # Class of committed instruction
system.switch_cpus.commit.op_class_0::SimdFloatMult            0      0.00%     71.43% # Class of committed instruction
system.switch_cpus.commit.op_class_0::SimdFloatMultAcc            0      0.00%     71.43% # Class of committed instruction
system.switch_cpus.commit.op_class_0::SimdFloatSqrt            0      0.00%     71.43% # Class of committed instruction
system.switch_cpus.commit.op_class_0::SimdReduceAdd            0      0.00%     71.43% # Class of committed instruction
system.switch_cpus.commit.op_class_0::SimdReduceAlu            0      0.00%     71.43% # Class of committed instruction
system.switch_cpus.commit.op_class_0::SimdReduceCmp            0      0.00%     71.43% # Class of committed instruction
system.switch_cpus.commit.op_class_0::SimdFloatReduceAdd            0      0.00%     71.43% # Class of committed instruction
system.switch_cpus.commit.op_class_0::SimdFloatReduceCmp            0      0.00%     71.43% # Class of committed instruction
system.switch_cpus.commit.op_class_0::SimdAes            0      0.00%     71.43% # Class of committed instruction
system.switch_cpus.commit.op_class_0::SimdAesMix            0      0.00%     71.43% # Class of committed instruction
system.switch_cpus.commit.op_class_0::SimdSha1Hash            0      0.00%     71.43% # Class of committed instruction
system.switch_cpus.commit.op_class_0::SimdSha1Hash2            0      0.00%     71.43% # Class of committed instruction
system.switch_cpus.commit.op_class_0::SimdSha256Hash            0      0.00%     71.43% # Class of committed instruction
system.switch_cpus.commit.op_class_0::SimdSha256Hash2            0      0.00%     71.43% # Class of committed instruction
system.switch_cpus.commit.op_class_0::SimdShaSigma2            0      0.00%     71.43% # Class of committed instruction
system.switch_cpus.commit.op_class_0::SimdShaSigma3            0      0.00%     71.43% # Class of committed instruction
system.switch_cpus.commit.op_class_0::SimdPredAlu            0      0.00%     71.43% # Class of committed instruction
system.switch_cpus.commit.op_class_0::MemRead      3567032     22.01%     93.45% # Class of committed instruction
system.switch_cpus.commit.op_class_0::MemWrite      1061813      6.55%    100.00% # Class of committed instruction
system.switch_cpus.commit.op_class_0::FloatMemRead            0      0.00%    100.00% # Class of committed instruction
system.switch_cpus.commit.op_class_0::FloatMemWrite            0      0.00%    100.00% # Class of committed instruction
system.switch_cpus.commit.op_class_0::IprAccess            0      0.00%    100.00% # Class of committed instruction
system.switch_cpus.commit.op_class_0::InstPrefetch            0      0.00%    100.00% # Class of committed instruction
system.switch_cpus.commit.op_class_0::total     16204550                       # Class of committed instruction
system.switch_cpus.commit.refs                4628845                       # Number of memory references committed
system.switch_cpus.commit.swp_count                 0                       # Number of s/w prefetches committed
system.switch_cpus.commit.vec_insts                 0                       # Number of committed Vector instructions.
system.switch_cpus.committedInsts            10000000                       # Number of Instructions Simulated
system.switch_cpus.committedOps              16204550                       # Number of Ops (including micro ops) Simulated
system.switch_cpus.cpi                       9.054413                       # CPI: Cycles Per Instruction
system.switch_cpus.cpi_total                 9.054413                       # CPI: Total CPI of All Threads
system.switch_cpus.decode.BlockedCycles      84230547                       # Number of cycles decode is blocked
system.switch_cpus.decode.DecodedInsts       33393646                       # Number of instructions handled by decode
system.switch_cpus.decode.IdleCycles          1648649                       # Number of cycles decode is idle
system.switch_cpus.decode.RunCycles           2789573                       # Number of cycles decode is running
system.switch_cpus.decode.SquashCycles         186346                       # Number of cycles decode is squashing
system.switch_cpus.decode.UnblockCycles       1687940                       # Number of cycles decode is unblocking
system.switch_cpus.dtb.rdAccesses             4790803                       # TLB accesses on read requests
system.switch_cpus.dtb.rdMisses                 44476                       # TLB misses on read requests
system.switch_cpus.dtb.wrAccesses             1615906                       # TLB accesses on write requests
system.switch_cpus.dtb.wrMisses                  1607                       # TLB misses on write requests
system.switch_cpus.fetch.Branches             4413151                       # Number of branches that fetch encountered
system.switch_cpus.fetch.CacheLines           3007052                       # Number of cache lines fetched
system.switch_cpus.fetch.Cycles              87228734                       # Number of cycles fetch has run and was not squashing or blocked
system.switch_cpus.fetch.IcacheSquashes         21743                       # Number of outstanding Icache misses that were squashed
system.switch_cpus.fetch.Insts               24269643                       # Number of instructions fetch has processed
system.switch_cpus.fetch.MiscStallCycles            8                       # Number of cycles fetch has spent waiting on interrupts, or bad addresses, or out of MSHRs
system.switch_cpus.fetch.PendingTrapStallCycles         1622                       # Number of stall cycles due to pending traps
system.switch_cpus.fetch.SquashCycles          372692                       # Number of cycles fetch has spent squashing
system.switch_cpus.fetch.branchRate          0.048740                       # Number of branch fetches per cycle
system.switch_cpus.fetch.icacheStallCycles      3126354                       # Number of cycles fetch is stalled on an Icache miss
system.switch_cpus.fetch.predictedBranches      1622254                       # Number of branches that fetch has predicted taken
system.switch_cpus.fetch.rate                0.268042                       # Number of inst fetches per cycle
system.switch_cpus.fetch.rateDist::samples     90543064                       # Number of instructions fetched each cycle (Total)
system.switch_cpus.fetch.rateDist::mean      0.429198                       # Number of instructions fetched each cycle (Total)
system.switch_cpus.fetch.rateDist::stdev     1.670099                       # Number of instructions fetched each cycle (Total)
system.switch_cpus.fetch.rateDist::underflows            0      0.00%      0.00% # Number of instructions fetched each cycle (Total)
system.switch_cpus.fetch.rateDist::0         84219226     93.02%     93.02% # Number of instructions fetched each cycle (Total)
system.switch_cpus.fetch.rateDist::1           131278      0.14%     93.16% # Number of instructions fetched each cycle (Total)
system.switch_cpus.fetch.rateDist::2           599198      0.66%     93.82% # Number of instructions fetched each cycle (Total)
system.switch_cpus.fetch.rateDist::3           328240      0.36%     94.18% # Number of instructions fetched each cycle (Total)
system.switch_cpus.fetch.rateDist::4           472616      0.52%     94.71% # Number of instructions fetched each cycle (Total)
system.switch_cpus.fetch.rateDist::5           399801      0.44%     95.15% # Number of instructions fetched each cycle (Total)
system.switch_cpus.fetch.rateDist::6          1160906      1.28%     96.43% # Number of instructions fetched each cycle (Total)
system.switch_cpus.fetch.rateDist::7           162823      0.18%     96.61% # Number of instructions fetched each cycle (Total)
system.switch_cpus.fetch.rateDist::8          3068976      3.39%    100.00% # Number of instructions fetched each cycle (Total)
system.switch_cpus.fetch.rateDist::overflows            0      0.00%    100.00% # Number of instructions fetched each cycle (Total)
system.switch_cpus.fetch.rateDist::min_value            0                       # Number of instructions fetched each cycle (Total)
system.switch_cpus.fetch.rateDist::max_value            8                       # Number of instructions fetched each cycle (Total)
system.switch_cpus.fetch.rateDist::total     90543064                       # Number of instructions fetched each cycle (Total)
system.switch_cpus.fp_regfile_writes               56                       # number of floating regfile writes
system.switch_cpus.idleCycles                    1066                       # Total number of cycles that the CPU has spent unscheduled due to idling
system.switch_cpus.iew.branchMispredicts       200900                       # Number of branch mispredicts detected at execute
system.switch_cpus.iew.exec_branches          2374770                       # Number of branches executed
system.switch_cpus.iew.exec_nop                     0                       # number of nop insts executed
system.switch_cpus.iew.exec_rate             0.273713                       # Inst execution rate
system.switch_cpus.iew.exec_refs              6790372                       # number of memory reference insts executed
system.switch_cpus.iew.exec_stores            1615906                       # Number of stores executed
system.switch_cpus.iew.exec_swp                     0                       # number of swp insts executed
system.switch_cpus.iew.iewBlockCycles        59882197                       # Number of cycles IEW is blocking
system.switch_cpus.iew.iewDispLoadInsts       6839541                       # Number of dispatched load instructions
system.switch_cpus.iew.iewDispNonSpecInsts            0                       # Number of dispatched non-speculative instructions
system.switch_cpus.iew.iewDispSquashedInsts         6296                       # Number of squashed instructions skipped by dispatch
system.switch_cpus.iew.iewDispStoreInsts      2347613                       # Number of dispatched store instructions
system.switch_cpus.iew.iewDispatchedInsts     31690634                       # Number of instructions dispatched to IQ
system.switch_cpus.iew.iewExecLoadInsts       5174466                       # Number of load instructions executed
system.switch_cpus.iew.iewExecSquashedInsts       232291                       # Number of squashed instructions skipped in execute
system.switch_cpus.iew.iewExecutedInsts      24783097                       # Number of executed instructions
system.switch_cpus.iew.iewIQFullEvents         474734                       # Number of times the IQ has become full, causing a stall
system.switch_cpus.iew.iewIdleCycles                0                       # Number of cycles IEW is idle
system.switch_cpus.iew.iewLSQFullEvents       1157716                       # Number of times the LSQ has become full, causing a stall
system.switch_cpus.iew.iewSquashCycles         186346                       # Number of cycles IEW is squashing
system.switch_cpus.iew.iewUnblockCycles       2295812                       # Number of cycles IEW is unblocking
system.switch_cpus.iew.lsq.thread0.blockedLoads            0                       # Number of blocked loads due to partial load-store forwarding
system.switch_cpus.iew.lsq.thread0.cacheBlocked       194090                       # Number of times an access to memory failed due to the cache being blocked
system.switch_cpus.iew.lsq.thread0.forwLoads        36657                       # Number of loads that had data forwarded from stores
system.switch_cpus.iew.lsq.thread0.ignoredResponses           50                       # Number of memory responses ignored because the instruction is squashed
system.switch_cpus.iew.lsq.thread0.invAddrLoads            0                       # Number of loads ignored due to an invalid address
system.switch_cpus.iew.lsq.thread0.invAddrSwpfs            0                       # Number of software prefetches ignored due to an invalid address
system.switch_cpus.iew.lsq.thread0.memOrderViolation          272                       # Number of memory ordering violations
system.switch_cpus.iew.lsq.thread0.rescheduledLoads            0                       # Number of loads that were rescheduled
system.switch_cpus.iew.lsq.thread0.squashedLoads      3272497                       # Number of loads squashed
system.switch_cpus.iew.lsq.thread0.squashedStores      1285795                       # Number of stores squashed
system.switch_cpus.iew.memOrderViolationEvents          272                       # Number of memory order violations
system.switch_cpus.iew.predictedNotTakenIncorrect       102696                       # Number of branches that were predicted not taken incorrectly
system.switch_cpus.iew.predictedTakenIncorrect        98204                       # Number of branches that were predicted taken incorrectly
system.switch_cpus.iew.wb_consumers          28489804                       # num instructions consuming a value
system.switch_cpus.iew.wb_count              24117614                       # cumulative count of insts written-back
system.switch_cpus.iew.wb_fanout             0.631128                       # average fanout of values written-back
system.switch_cpus.iew.wb_producers          17980710                       # num instructions producing a value
system.switch_cpus.iew.wb_rate               0.266363                       # insts written-back per cycle
system.switch_cpus.iew.wb_sent               24131790                       # cumulative count of insts sent to commit
system.switch_cpus.int_regfile_reads         33663141                       # number of integer regfile reads
system.switch_cpus.int_regfile_writes        20123385                       # number of integer regfile writes
system.switch_cpus.ipc                       0.110443                       # IPC: Instructions Per Cycle
system.switch_cpus.ipc_total                 0.110443                       # IPC: Total IPC of All Threads
system.switch_cpus.iq.FU_type_0::No_OpClass        17944      0.07%      0.07% # Type of FU issued
system.switch_cpus.iq.FU_type_0::IntAlu      18084859     72.29%     72.37% # Type of FU issued
system.switch_cpus.iq.FU_type_0::IntMult         2943      0.01%     72.38% # Type of FU issued
system.switch_cpus.iq.FU_type_0::IntDiv             0      0.00%     72.38% # Type of FU issued
system.switch_cpus.iq.FU_type_0::FloatAdd            0      0.00%     72.38% # Type of FU issued
system.switch_cpus.iq.FU_type_0::FloatCmp            0      0.00%     72.38% # Type of FU issued
system.switch_cpus.iq.FU_type_0::FloatCvt            0      0.00%     72.38% # Type of FU issued
system.switch_cpus.iq.FU_type_0::FloatMult            0      0.00%     72.38% # Type of FU issued
system.switch_cpus.iq.FU_type_0::FloatMultAcc            0      0.00%     72.38% # Type of FU issued
system.switch_cpus.iq.FU_type_0::FloatDiv            0      0.00%     72.38% # Type of FU issued
system.switch_cpus.iq.FU_type_0::FloatMisc            0      0.00%     72.38% # Type of FU issued
system.switch_cpus.iq.FU_type_0::FloatSqrt            0      0.00%     72.38% # Type of FU issued
system.switch_cpus.iq.FU_type_0::SimdAdd            0      0.00%     72.38% # Type of FU issued
system.switch_cpus.iq.FU_type_0::SimdAddAcc            0      0.00%     72.38% # Type of FU issued
system.switch_cpus.iq.FU_type_0::SimdAlu            0      0.00%     72.38% # Type of FU issued
system.switch_cpus.iq.FU_type_0::SimdCmp            0      0.00%     72.38% # Type of FU issued
system.switch_cpus.iq.FU_type_0::SimdCvt            0      0.00%     72.38% # Type of FU issued
system.switch_cpus.iq.FU_type_0::SimdMisc            0      0.00%     72.38% # Type of FU issued
system.switch_cpus.iq.FU_type_0::SimdMult            0      0.00%     72.38% # Type of FU issued
system.switch_cpus.iq.FU_type_0::SimdMultAcc            0      0.00%     72.38% # Type of FU issued
system.switch_cpus.iq.FU_type_0::SimdShift            0      0.00%     72.38% # Type of FU issued
system.switch_cpus.iq.FU_type_0::SimdShiftAcc            0      0.00%     72.38% # Type of FU issued
system.switch_cpus.iq.FU_type_0::SimdDiv            0      0.00%     72.38% # Type of FU issued
system.switch_cpus.iq.FU_type_0::SimdSqrt            0      0.00%     72.38% # Type of FU issued
system.switch_cpus.iq.FU_type_0::SimdFloatAdd            0      0.00%     72.38% # Type of FU issued
system.switch_cpus.iq.FU_type_0::SimdFloatAlu            0      0.00%     72.38% # Type of FU issued
system.switch_cpus.iq.FU_type_0::SimdFloatCmp            0      0.00%     72.38% # Type of FU issued
system.switch_cpus.iq.FU_type_0::SimdFloatCvt            0      0.00%     72.38% # Type of FU issued
system.switch_cpus.iq.FU_type_0::SimdFloatDiv            0      0.00%     72.38% # Type of FU issued
system.switch_cpus.iq.FU_type_0::SimdFloatMisc            0      0.00%     72.38% # Type of FU issued
system.switch_cpus.iq.FU_type_0::SimdFloatMult            0      0.00%     72.38% # Type of FU issued
system.switch_cpus.iq.FU_type_0::SimdFloatMultAcc            0      0.00%     72.38% # Type of FU issued
system.switch_cpus.iq.FU_type_0::SimdFloatSqrt            0      0.00%     72.38% # Type of FU issued
system.switch_cpus.iq.FU_type_0::SimdReduceAdd            0      0.00%     72.38% # Type of FU issued
system.switch_cpus.iq.FU_type_0::SimdReduceAlu            0      0.00%     72.38% # Type of FU issued
system.switch_cpus.iq.FU_type_0::SimdReduceCmp            0      0.00%     72.38% # Type of FU issued
system.switch_cpus.iq.FU_type_0::SimdFloatReduceAdd            0      0.00%     72.38% # Type of FU issued
system.switch_cpus.iq.FU_type_0::SimdFloatReduceCmp            0      0.00%     72.38% # Type of FU issued
system.switch_cpus.iq.FU_type_0::SimdAes            0      0.00%     72.38% # Type of FU issued
system.switch_cpus.iq.FU_type_0::SimdAesMix            0      0.00%     72.38% # Type of FU issued
system.switch_cpus.iq.FU_type_0::SimdSha1Hash            0      0.00%     72.38% # Type of FU issued
system.switch_cpus.iq.FU_type_0::SimdSha1Hash2            0      0.00%     72.38% # Type of FU issued
system.switch_cpus.iq.FU_type_0::SimdSha256Hash            0      0.00%     72.38% # Type of FU issued
system.switch_cpus.iq.FU_type_0::SimdSha256Hash2            0      0.00%     72.38% # Type of FU issued
system.switch_cpus.iq.FU_type_0::SimdShaSigma2            0      0.00%     72.38% # Type of FU issued
system.switch_cpus.iq.FU_type_0::SimdShaSigma3            0      0.00%     72.38% # Type of FU issued
system.switch_cpus.iq.FU_type_0::SimdPredAlu            0      0.00%     72.38% # Type of FU issued
system.switch_cpus.iq.FU_type_0::MemRead      5224066     20.88%     93.26% # Type of FU issued
system.switch_cpus.iq.FU_type_0::MemWrite      1685577      6.74%    100.00% # Type of FU issued
system.switch_cpus.iq.FU_type_0::FloatMemRead            0      0.00%    100.00% # Type of FU issued
system.switch_cpus.iq.FU_type_0::FloatMemWrite            0      0.00%    100.00% # Type of FU issued
system.switch_cpus.iq.FU_type_0::IprAccess            0      0.00%    100.00% # Type of FU issued
system.switch_cpus.iq.FU_type_0::InstPrefetch            0      0.00%    100.00% # Type of FU issued
system.switch_cpus.iq.FU_type_0::total       25015389                       # Type of FU issued
system.switch_cpus.iq.fp_alu_accesses               0                       # Number of floating point alu accesses
system.switch_cpus.iq.fp_inst_queue_reads            0                       # Number of floating instruction queue reads
system.switch_cpus.iq.fp_inst_queue_wakeup_accesses            0                       # Number of floating instruction queue wakeup accesses
system.switch_cpus.iq.fp_inst_queue_writes            0                       # Number of floating instruction queue writes
system.switch_cpus.iq.fu_busy_cnt              281690                       # FU busy when requested
system.switch_cpus.iq.fu_busy_rate           0.011261                       # FU busy rate (busy events/executed inst)
system.switch_cpus.iq.fu_full::No_OpClass            0      0.00%      0.00% # attempts to use FU when none available
system.switch_cpus.iq.fu_full::IntAlu           71082     25.23%     25.23% # attempts to use FU when none available
system.switch_cpus.iq.fu_full::IntMult              0      0.00%     25.23% # attempts to use FU when none available
system.switch_cpus.iq.fu_full::IntDiv               0      0.00%     25.23% # attempts to use FU when none available
system.switch_cpus.iq.fu_full::FloatAdd             0      0.00%     25.23% # attempts to use FU when none available
system.switch_cpus.iq.fu_full::FloatCmp             0      0.00%     25.23% # attempts to use FU when none available
system.switch_cpus.iq.fu_full::FloatCvt             0      0.00%     25.23% # attempts to use FU when none available
system.switch_cpus.iq.fu_full::FloatMult            0      0.00%     25.23% # attempts to use FU when none available
system.switch_cpus.iq.fu_full::FloatMultAcc            0      0.00%     25.23% # attempts to use FU when none available
system.switch_cpus.iq.fu_full::FloatDiv             0      0.00%     25.23% # attempts to use FU when none available
system.switch_cpus.iq.fu_full::FloatMisc            0      0.00%     25.23% # attempts to use FU when none available
system.switch_cpus.iq.fu_full::FloatSqrt            0      0.00%     25.23% # attempts to use FU when none available
system.switch_cpus.iq.fu_full::SimdAdd              0      0.00%     25.23% # attempts to use FU when none available
system.switch_cpus.iq.fu_full::SimdAddAcc            0      0.00%     25.23% # attempts to use FU when none available
system.switch_cpus.iq.fu_full::SimdAlu              0      0.00%     25.23% # attempts to use FU when none available
system.switch_cpus.iq.fu_full::SimdCmp              0      0.00%     25.23% # attempts to use FU when none available
system.switch_cpus.iq.fu_full::SimdCvt              0      0.00%     25.23% # attempts to use FU when none available
system.switch_cpus.iq.fu_full::SimdMisc             0      0.00%     25.23% # attempts to use FU when none available
system.switch_cpus.iq.fu_full::SimdMult             0      0.00%     25.23% # attempts to use FU when none available
system.switch_cpus.iq.fu_full::SimdMultAcc            0      0.00%     25.23% # attempts to use FU when none available
system.switch_cpus.iq.fu_full::SimdShift            0      0.00%     25.23% # attempts to use FU when none available
system.switch_cpus.iq.fu_full::SimdShiftAcc            0      0.00%     25.23% # attempts to use FU when none available
system.switch_cpus.iq.fu_full::SimdDiv              0      0.00%     25.23% # attempts to use FU when none available
system.switch_cpus.iq.fu_full::SimdSqrt             0      0.00%     25.23% # attempts to use FU when none available
system.switch_cpus.iq.fu_full::SimdFloatAdd            0      0.00%     25.23% # attempts to use FU when none available
system.switch_cpus.iq.fu_full::SimdFloatAlu            0      0.00%     25.23% # attempts to use FU when none available
system.switch_cpus.iq.fu_full::SimdFloatCmp            0      0.00%     25.23% # attempts to use FU when none available
system.switch_cpus.iq.fu_full::SimdFloatCvt            0      0.00%     25.23% # attempts to use FU when none available
system.switch_cpus.iq.fu_full::SimdFloatDiv            0      0.00%     25.23% # attempts to use FU when none available
system.switch_cpus.iq.fu_full::SimdFloatMisc            0      0.00%     25.23% # attempts to use FU when none available
system.switch_cpus.iq.fu_full::SimdFloatMult            0      0.00%     25.23% # attempts to use FU when none available
system.switch_cpus.iq.fu_full::SimdFloatMultAcc            0      0.00%     25.23% # attempts to use FU when none available
system.switch_cpus.iq.fu_full::SimdFloatSqrt            0      0.00%     25.23% # attempts to use FU when none available
system.switch_cpus.iq.fu_full::SimdReduceAdd            0      0.00%     25.23% # attempts to use FU when none available
system.switch_cpus.iq.fu_full::SimdReduceAlu            0      0.00%     25.23% # attempts to use FU when none available
system.switch_cpus.iq.fu_full::SimdReduceCmp            0      0.00%     25.23% # attempts to use FU when none available
system.switch_cpus.iq.fu_full::SimdFloatReduceAdd            0      0.00%     25.23% # attempts to use FU when none available
system.switch_cpus.iq.fu_full::SimdFloatReduceCmp            0      0.00%     25.23% # attempts to use FU when none available
system.switch_cpus.iq.fu_full::SimdAes              0      0.00%     25.23% # attempts to use FU when none available
system.switch_cpus.iq.fu_full::SimdAesMix            0      0.00%     25.23% # attempts to use FU when none available
system.switch_cpus.iq.fu_full::SimdSha1Hash            0      0.00%     25.23% # attempts to use FU when none available
system.switch_cpus.iq.fu_full::SimdSha1Hash2            0      0.00%     25.23% # attempts to use FU when none available
system.switch_cpus.iq.fu_full::SimdSha256Hash            0      0.00%     25.23% # attempts to use FU when none available
system.switch_cpus.iq.fu_full::SimdSha256Hash2            0      0.00%     25.23% # attempts to use FU when none available
system.switch_cpus.iq.fu_full::SimdShaSigma2            0      0.00%     25.23% # attempts to use FU when none available
system.switch_cpus.iq.fu_full::SimdShaSigma3            0      0.00%     25.23% # attempts to use FU when none available
system.switch_cpus.iq.fu_full::SimdPredAlu            0      0.00%     25.23% # attempts to use FU when none available
system.switch_cpus.iq.fu_full::MemRead          68340     24.26%     49.49% # attempts to use FU when none available
system.switch_cpus.iq.fu_full::MemWrite        142268     50.51%    100.00% # attempts to use FU when none available
system.switch_cpus.iq.fu_full::FloatMemRead            0      0.00%    100.00% # attempts to use FU when none available
system.switch_cpus.iq.fu_full::FloatMemWrite            0      0.00%    100.00% # attempts to use FU when none available
system.switch_cpus.iq.fu_full::IprAccess            0      0.00%    100.00% # attempts to use FU when none available
system.switch_cpus.iq.fu_full::InstPrefetch            0      0.00%    100.00% # attempts to use FU when none available
system.switch_cpus.iq.int_alu_accesses       25279135                       # Number of integer alu accesses
system.switch_cpus.iq.int_inst_queue_reads    140876300                       # Number of integer instruction queue reads
system.switch_cpus.iq.int_inst_queue_wakeup_accesses     24117614                       # Number of integer instruction queue wakeup accesses
system.switch_cpus.iq.int_inst_queue_writes     47176918                       # Number of integer instruction queue writes
system.switch_cpus.iq.iqInstsAdded           31690634                       # Number of instructions added to the IQ (excludes non-spec)
system.switch_cpus.iq.iqInstsIssued          25015389                       # Number of instructions issued
system.switch_cpus.iq.iqSquashedInstsExamined     15486015                       # Number of squashed instructions iterated over during squash; mainly for profiling
system.switch_cpus.iq.iqSquashedInstsIssued        20769                       # Number of squashed instructions issued
system.switch_cpus.iq.iqSquashedOperandsExamined     26665777                       # Number of squashed operands that are examined and possibly removed from graph
system.switch_cpus.iq.issued_per_cycle::samples     90543064                       # Number of insts issued each cycle
system.switch_cpus.iq.issued_per_cycle::mean     0.276282                       # Number of insts issued each cycle
system.switch_cpus.iq.issued_per_cycle::stdev     0.918134                       # Number of insts issued each cycle
system.switch_cpus.iq.issued_per_cycle::underflows            0      0.00%      0.00% # Number of insts issued each cycle
system.switch_cpus.iq.issued_per_cycle::0     79258916     87.54%     87.54% # Number of insts issued each cycle
system.switch_cpus.iq.issued_per_cycle::1      5248247      5.80%     93.33% # Number of insts issued each cycle
system.switch_cpus.iq.issued_per_cycle::2      2429930      2.68%     96.02% # Number of insts issued each cycle
system.switch_cpus.iq.issued_per_cycle::3      1627250      1.80%     97.81% # Number of insts issued each cycle
system.switch_cpus.iq.issued_per_cycle::4       871576      0.96%     98.78% # Number of insts issued each cycle
system.switch_cpus.iq.issued_per_cycle::5       486885      0.54%     99.31% # Number of insts issued each cycle
system.switch_cpus.iq.issued_per_cycle::6       334164      0.37%     99.68% # Number of insts issued each cycle
system.switch_cpus.iq.issued_per_cycle::7       188949      0.21%     99.89% # Number of insts issued each cycle
system.switch_cpus.iq.issued_per_cycle::8        97147      0.11%    100.00% # Number of insts issued each cycle
system.switch_cpus.iq.issued_per_cycle::overflows            0      0.00%    100.00% # Number of insts issued each cycle
system.switch_cpus.iq.issued_per_cycle::min_value            0                       # Number of insts issued each cycle
system.switch_cpus.iq.issued_per_cycle::max_value            8                       # Number of insts issued each cycle
system.switch_cpus.iq.issued_per_cycle::total     90543064                       # Number of insts issued each cycle
system.switch_cpus.iq.rate                   0.276278                       # Inst issue rate
system.switch_cpus.iq.vec_alu_accesses              0                       # Number of vector alu accesses
system.switch_cpus.iq.vec_inst_queue_reads            0                       # Number of vector instruction queue reads
system.switch_cpus.iq.vec_inst_queue_wakeup_accesses            0                       # Number of vector instruction queue wakeup accesses
system.switch_cpus.iq.vec_inst_queue_writes            0                       # Number of vector instruction queue writes
system.switch_cpus.itb.rdAccesses                   0                       # TLB accesses on read requests
system.switch_cpus.itb.rdMisses                     0                       # TLB misses on read requests
system.switch_cpus.itb.wrAccesses             3007325                       # TLB accesses on write requests
system.switch_cpus.itb.wrMisses                   275                       # TLB misses on write requests
system.switch_cpus.memDep0.conflictingLoads       419031                       # Number of conflicting loads.
system.switch_cpus.memDep0.conflictingStores       630712                       # Number of conflicting stores.
system.switch_cpus.memDep0.insertedLoads      6839541                       # Number of loads inserted to the mem dependence unit.
system.switch_cpus.memDep0.insertedStores      2347613                       # Number of stores inserted to the mem dependence unit.
system.switch_cpus.misc_regfile_reads        12750970                       # number of misc regfile reads
system.switch_cpus.misc_regfile_writes              1                       # number of misc regfile writes
system.switch_cpus.numCycles                 90544130                       # number of cpu cycles simulated
system.switch_cpus.numWorkItemsCompleted            0                       # number of work items this cpu completed
system.switch_cpus.numWorkItemsStarted              0                       # number of work items this cpu started
system.switch_cpus.rename.BlockCycles        76405139                       # Number of cycles rename is blocking
system.switch_cpus.rename.CommittedMaps      20622243                       # Number of HB maps that are committed
system.switch_cpus.rename.IQFullEvents        5589028                       # Number of times rename has blocked due to IQ full
system.switch_cpus.rename.IdleCycles          2133515                       # Number of cycles rename is idle
system.switch_cpus.rename.LQFullEvents        1193455                       # Number of times rename has blocked due to LQ full
system.switch_cpus.rename.ROBFullEvents        212622                       # Number of times rename has blocked due to ROB full
system.switch_cpus.rename.RenameLookups      86411070                       # Number of register rename lookups that rename has made
system.switch_cpus.rename.RenamedInsts       32498168                       # Number of instructions processed by rename
system.switch_cpus.rename.RenamedOperands     40991108                       # Number of destination operands rename has renamed
system.switch_cpus.rename.RunCycles           3604709                       # Number of cycles rename is running
system.switch_cpus.rename.SQFullEvents        1415206                       # Number of times rename has blocked due to SQ full
system.switch_cpus.rename.SquashCycles         186346                       # Number of cycles rename is squashing
system.switch_cpus.rename.UnblockCycles       8213346                       # Number of cycles rename is unblocking
system.switch_cpus.rename.UndoneMaps         20368767                       # Number of HB maps that are undone due to squashing
system.switch_cpus.rename.int_rename_lookups     49239211                       # Number of integer rename lookups
system.switch_cpus.rename.serializeStallCycles            0                       # count of cycles rename stalled for serializing inst
system.switch_cpus.rename.serializingInsts            0                       # count of serializing insts renamed
system.switch_cpus.rename.skidInsts          10632115                       # count of insts added to the skid buffer
system.switch_cpus.rename.tempSerializingInsts            0                       # count of temporary serializing insts renamed
system.switch_cpus.rob.rob_reads            119383769                       # The number of ROB reads
system.switch_cpus.rob.rob_writes            65569782                       # The number of ROB writes
system.switch_cpus.timesIdled                      16                       # Number of times that the entire CPU went into an idle state and unscheduled itself
system.tol2bus.snoop_filter.hit_multi_requests            0                       # Number of requests hitting in the snoop filter with multiple (>1) holders of the requested data.
system.tol2bus.snoop_filter.hit_multi_snoops            0                       # Number of snoops hitting in the snoop filter with multiple (>1) holders of the requested data.
system.tol2bus.snoop_filter.hit_single_requests      2091990                       # Number of requests hitting in the snoop filter with a single holder of the requested data.
system.tol2bus.snoop_filter.hit_single_snoops       531045                       # Number of snoops hitting in the snoop filter with a single holder of the requested data.
system.tol2bus.snoop_filter.tot_requests      4185023                       # Total number of requests made to the snoop filter.
system.tol2bus.snoop_filter.tot_snoops         531045                       # Total number of snoops made to the snoop filter.
system.membus.pwrStateResidencyTicks::UNDEFINED 92826367502000                       # Cumulative time (in ticks) in various power states
system.membus.trans_dist::ReadResp             994649                       # Transaction distribution
system.membus.trans_dist::WritebackDirty       137609                       # Transaction distribution
system.membus.trans_dist::CleanEvict           892387                       # Transaction distribution
system.membus.trans_dist::ReadExReq             39597                       # Transaction distribution
system.membus.trans_dist::ReadExResp            39597                       # Transaction distribution
system.membus.trans_dist::ReadSharedReq        994649                       # Transaction distribution
system.membus.pkt_count_system.l2.mem_side::system.mem_ctrls.port      3098488                       # Packet count per connected master and slave (bytes)
system.membus.pkt_count_system.l2.mem_side::total      3098488                       # Packet count per connected master and slave (bytes)
system.membus.pkt_count::total                3098488                       # Packet count per connected master and slave (bytes)
system.membus.pkt_size_system.l2.mem_side::system.mem_ctrls.port     74998720                       # Cumulative packet size per connected master and slave (bytes)
system.membus.pkt_size_system.l2.mem_side::total     74998720                       # Cumulative packet size per connected master and slave (bytes)
system.membus.pkt_size::total                74998720                       # Cumulative packet size per connected master and slave (bytes)
system.membus.snoops                                0                       # Total snoops (count)
system.membus.snoopTraffic                          0                       # Total snoop traffic (bytes)
system.membus.snoop_fanout::samples           1034246                       # Request fanout histogram
system.membus.snoop_fanout::mean                    0                       # Request fanout histogram
system.membus.snoop_fanout::stdev                   0                       # Request fanout histogram
system.membus.snoop_fanout::underflows              0      0.00%      0.00% # Request fanout histogram
system.membus.snoop_fanout::0                 1034246    100.00%    100.00% # Request fanout histogram
system.membus.snoop_fanout::1                       0      0.00%    100.00% # Request fanout histogram
system.membus.snoop_fanout::overflows               0      0.00%    100.00% # Request fanout histogram
system.membus.snoop_fanout::min_value               0                       # Request fanout histogram
system.membus.snoop_fanout::max_value               0                       # Request fanout histogram
system.membus.snoop_fanout::total             1034246                       # Request fanout histogram
system.membus.reqLayer2.occupancy          2878523122                       # Layer occupancy (ticks)
system.membus.reqLayer2.utilization               6.4                       # Layer utilization (%)
system.membus.respLayer1.occupancy         5413136452                       # Layer occupancy (ticks)
system.membus.respLayer1.utilization             12.0                       # Layer utilization (%)
system.switch_cpus.pwrStateResidencyTicks::OFF  45272075750                       # Cumulative time (in ticks) in various power states
system.switch_cpus.dtb.walker.pwrStateResidencyTicks::UNDEFINED 92826367502000                       # Cumulative time (in ticks) in various power states
system.switch_cpus.itb.walker.pwrStateResidencyTicks::UNDEFINED 92826367502000                       # Cumulative time (in ticks) in various power states
system.tol2bus.pwrStateResidencyTicks::UNDEFINED 92826367502000                       # Cumulative time (in ticks) in various power states
system.tol2bus.trans_dist::ReadResp           2013322                       # Transaction distribution
system.tol2bus.trans_dist::WritebackDirty       278950                       # Transaction distribution
system.tol2bus.trans_dist::CleanEvict         2898880                       # Transaction distribution
system.tol2bus.trans_dist::HardPFReq           163844                       # Transaction distribution
system.tol2bus.trans_dist::ReadExReq            79710                       # Transaction distribution
system.tol2bus.trans_dist::ReadExResp           79710                       # Transaction distribution
system.tol2bus.trans_dist::ReadCleanReq            18                       # Transaction distribution
system.tol2bus.trans_dist::ReadSharedReq      2013305                       # Transaction distribution
system.tol2bus.pkt_count_system.cpu.icache.mem_side::system.l2.cpu_side           36                       # Packet count per connected master and slave (bytes)
system.tol2bus.pkt_count_system.cpu.dcache.mem_side::system.l2.cpu_side      6278019                       # Packet count per connected master and slave (bytes)
system.tol2bus.pkt_count::total               6278055                       # Packet count per connected master and slave (bytes)
system.tol2bus.pkt_size_system.cpu.icache.mem_side::system.l2.cpu_side         1152                       # Cumulative packet size per connected master and slave (bytes)
system.tol2bus.pkt_size_system.cpu.dcache.mem_side::system.l2.cpu_side    142998720                       # Cumulative packet size per connected master and slave (bytes)
system.tol2bus.pkt_size::total              142999872                       # Cumulative packet size per connected master and slave (bytes)
system.tol2bus.snoops                         1249684                       # Total snoops (count)
system.tol2bus.snoopTraffic                   8806976                       # Total snoop traffic (bytes)
system.tol2bus.snoop_fanout::samples          3342717                       # Request fanout histogram
system.tol2bus.snoop_fanout::mean            0.158866                       # Request fanout histogram
system.tol2bus.snoop_fanout::stdev           0.365551                       # Request fanout histogram
system.tol2bus.snoop_fanout::underflows             0      0.00%      0.00% # Request fanout histogram
system.tol2bus.snoop_fanout::0                2811672     84.11%     84.11% # Request fanout histogram
system.tol2bus.snoop_fanout::1                 531045     15.89%    100.00% # Request fanout histogram
system.tol2bus.snoop_fanout::2                      0      0.00%    100.00% # Request fanout histogram
system.tol2bus.snoop_fanout::3                      0      0.00%    100.00% # Request fanout histogram
system.tol2bus.snoop_fanout::4                      0      0.00%    100.00% # Request fanout histogram
system.tol2bus.snoop_fanout::overflows              0      0.00%    100.00% # Request fanout histogram
system.tol2bus.snoop_fanout::min_value              0                       # Request fanout histogram
system.tol2bus.snoop_fanout::max_value              1                       # Request fanout histogram
system.tol2bus.snoop_fanout::total            3342717                       # Request fanout histogram
system.tol2bus.reqLayer0.occupancy         2233850500                       # Layer occupancy (ticks)
system.tol2bus.reqLayer0.utilization              4.9                       # Layer utilization (%)
system.tol2bus.respLayer1.occupancy        3139516500                       # Layer occupancy (ticks)
system.tol2bus.respLayer1.utilization             6.9                       # Layer utilization (%)
system.tol2bus.respLayer0.occupancy             25500                       # Layer occupancy (ticks)
system.tol2bus.respLayer0.utilization             0.0                       # Layer utilization (%)
system.voltage_domain.voltage                       1                       # Voltage in Volts
system.clk_domain.clock                          1000                       # Clock period in ticks
system.l2.pwrStateResidencyTicks::UNDEFINED 92826367502000                       # Cumulative time (in ticks) in various power states
system.l2.demand_hits::.switch_cpus.data      1154841                       # number of demand (read+write) hits
system.l2.demand_hits::total                  1154841                       # number of demand (read+write) hits
system.l2.overall_hits::.switch_cpus.data      1154841                       # number of overall hits
system.l2.overall_hits::total                 1154841                       # number of overall hits
system.l2.demand_misses::.cpu.inst                  1                       # number of demand (read+write) misses
system.l2.demand_misses::.cpu.data                  3                       # number of demand (read+write) misses
system.l2.demand_misses::.switch_cpus.inst           17                       # number of demand (read+write) misses
system.l2.demand_misses::.switch_cpus.data       938171                       # number of demand (read+write) misses
system.l2.demand_misses::total                 938192                       # number of demand (read+write) misses
system.l2.overall_misses::.cpu.inst                 1                       # number of overall misses
system.l2.overall_misses::.cpu.data                 3                       # number of overall misses
system.l2.overall_misses::.switch_cpus.inst           17                       # number of overall misses
system.l2.overall_misses::.switch_cpus.data       938171                       # number of overall misses
system.l2.overall_misses::total                938192                       # number of overall misses
system.l2.demand_miss_latency::.switch_cpus.inst      1497500                       # number of demand (read+write) miss cycles
system.l2.demand_miss_latency::.switch_cpus.data  75481826000                       # number of demand (read+write) miss cycles
system.l2.demand_miss_latency::total      75483323500                       # number of demand (read+write) miss cycles
system.l2.overall_miss_latency::.switch_cpus.inst      1497500                       # number of overall miss cycles
system.l2.overall_miss_latency::.switch_cpus.data  75481826000                       # number of overall miss cycles
system.l2.overall_miss_latency::total     75483323500                       # number of overall miss cycles
system.l2.demand_accesses::.cpu.inst                1                       # number of demand (read+write) accesses
system.l2.demand_accesses::.cpu.data                3                       # number of demand (read+write) accesses
system.l2.demand_accesses::.switch_cpus.inst           17                       # number of demand (read+write) accesses
system.l2.demand_accesses::.switch_cpus.data      2093012                       # number of demand (read+write) accesses
system.l2.demand_accesses::total              2093033                       # number of demand (read+write) accesses
system.l2.overall_accesses::.cpu.inst               1                       # number of overall (read+write) accesses
system.l2.overall_accesses::.cpu.data               3                       # number of overall (read+write) accesses
system.l2.overall_accesses::.switch_cpus.inst           17                       # number of overall (read+write) accesses
system.l2.overall_accesses::.switch_cpus.data      2093012                       # number of overall (read+write) accesses
system.l2.overall_accesses::total             2093033                       # number of overall (read+write) accesses
system.l2.demand_miss_rate::.cpu.inst               1                       # miss rate for demand accesses
system.l2.demand_miss_rate::.cpu.data               1                       # miss rate for demand accesses
system.l2.demand_miss_rate::.switch_cpus.inst            1                       # miss rate for demand accesses
system.l2.demand_miss_rate::.switch_cpus.data     0.448240                       # miss rate for demand accesses
system.l2.demand_miss_rate::total            0.448245                       # miss rate for demand accesses
system.l2.overall_miss_rate::.cpu.inst              1                       # miss rate for overall accesses
system.l2.overall_miss_rate::.cpu.data              1                       # miss rate for overall accesses
system.l2.overall_miss_rate::.switch_cpus.inst            1                       # miss rate for overall accesses
system.l2.overall_miss_rate::.switch_cpus.data     0.448240                       # miss rate for overall accesses
system.l2.overall_miss_rate::total           0.448245                       # miss rate for overall accesses
system.l2.demand_avg_miss_latency::.switch_cpus.inst 88088.235294                       # average overall miss latency
system.l2.demand_avg_miss_latency::.switch_cpus.data 80456.362433                       # average overall miss latency
system.l2.demand_avg_miss_latency::total 80456.157695                       # average overall miss latency
system.l2.overall_avg_miss_latency::.switch_cpus.inst 88088.235294                       # average overall miss latency
system.l2.overall_avg_miss_latency::.switch_cpus.data 80456.362433                       # average overall miss latency
system.l2.overall_avg_miss_latency::total 80456.157695                       # average overall miss latency
system.l2.blocked_cycles::no_mshrs                  0                       # number of cycles access was blocked
system.l2.blocked_cycles::no_targets                0                       # number of cycles access was blocked
system.l2.blocked::no_mshrs                         0                       # number of cycles access was blocked
system.l2.blocked::no_targets                       0                       # number of cycles access was blocked
system.l2.avg_blocked_cycles::no_mshrs            nan                       # average number of cycles each access was blocked
system.l2.avg_blocked_cycles::no_targets          nan                       # average number of cycles each access was blocked
system.l2.unused_prefetches                     11635                       # number of HardPF blocks evicted w/o reference
system.l2.writebacks::.writebacks              137609                       # number of writebacks
system.l2.writebacks::total                    137609                       # number of writebacks
system.l2.demand_mshr_hits::.switch_cpus.data         1326                       # number of demand (read+write) MSHR hits
system.l2.demand_mshr_hits::total                1326                       # number of demand (read+write) MSHR hits
system.l2.overall_mshr_hits::.switch_cpus.data         1326                       # number of overall MSHR hits
system.l2.overall_mshr_hits::total               1326                       # number of overall MSHR hits
system.l2.demand_mshr_misses::.switch_cpus.inst           17                       # number of demand (read+write) MSHR misses
system.l2.demand_mshr_misses::.switch_cpus.data       936845                       # number of demand (read+write) MSHR misses
system.l2.demand_mshr_misses::total            936862                       # number of demand (read+write) MSHR misses
system.l2.overall_mshr_misses::.l2.prefetcher        97398                       # number of overall MSHR misses
system.l2.overall_mshr_misses::.switch_cpus.inst           17                       # number of overall MSHR misses
system.l2.overall_mshr_misses::.switch_cpus.data       936845                       # number of overall MSHR misses
system.l2.overall_mshr_misses::total          1034260                       # number of overall MSHR misses
system.l2.demand_mshr_miss_latency::.switch_cpus.inst      1327500                       # number of demand (read+write) MSHR miss cycles
system.l2.demand_mshr_miss_latency::.switch_cpus.data  66060437500                       # number of demand (read+write) MSHR miss cycles
system.l2.demand_mshr_miss_latency::total  66061765000                       # number of demand (read+write) MSHR miss cycles
system.l2.overall_mshr_miss_latency::.l2.prefetcher   6707076197                       # number of overall MSHR miss cycles
system.l2.overall_mshr_miss_latency::.switch_cpus.inst      1327500                       # number of overall MSHR miss cycles
system.l2.overall_mshr_miss_latency::.switch_cpus.data  66060437500                       # number of overall MSHR miss cycles
system.l2.overall_mshr_miss_latency::total  72768841197                       # number of overall MSHR miss cycles
system.l2.demand_mshr_miss_rate::.switch_cpus.inst            1                       # mshr miss rate for demand accesses
system.l2.demand_mshr_miss_rate::.switch_cpus.data     0.447606                       # mshr miss rate for demand accesses
system.l2.demand_mshr_miss_rate::total       0.447610                       # mshr miss rate for demand accesses
system.l2.overall_mshr_miss_rate::.l2.prefetcher          inf                       # mshr miss rate for overall accesses
system.l2.overall_mshr_miss_rate::.switch_cpus.inst            1                       # mshr miss rate for overall accesses
system.l2.overall_mshr_miss_rate::.switch_cpus.data     0.447606                       # mshr miss rate for overall accesses
system.l2.overall_mshr_miss_rate::total      0.494144                       # mshr miss rate for overall accesses
system.l2.demand_avg_mshr_miss_latency::.switch_cpus.inst 78088.235294                       # average overall mshr miss latency
system.l2.demand_avg_mshr_miss_latency::.switch_cpus.data 70513.732261                       # average overall mshr miss latency
system.l2.demand_avg_mshr_miss_latency::total 70513.869705                       # average overall mshr miss latency
system.l2.overall_avg_mshr_miss_latency::.l2.prefetcher 68862.565936                       # average overall mshr miss latency
system.l2.overall_avg_mshr_miss_latency::.switch_cpus.inst 78088.235294                       # average overall mshr miss latency
system.l2.overall_avg_mshr_miss_latency::.switch_cpus.data 70513.732261                       # average overall mshr miss latency
system.l2.overall_avg_mshr_miss_latency::total 70358.363658                       # average overall mshr miss latency
system.l2.replacements                        1085840                       # number of replacements
system.l2.WritebackDirty_hits::.writebacks       141341                       # number of WritebackDirty hits
system.l2.WritebackDirty_hits::total           141341                       # number of WritebackDirty hits
system.l2.WritebackDirty_accesses::.writebacks       141341                       # number of WritebackDirty accesses(hits+misses)
system.l2.WritebackDirty_accesses::total       141341                       # number of WritebackDirty accesses(hits+misses)
system.l2.CleanEvict_mshr_misses::.writebacks       475184                       # number of CleanEvict MSHR misses
system.l2.CleanEvict_mshr_misses::total        475184                       # number of CleanEvict MSHR misses
system.l2.CleanEvict_mshr_miss_rate::.writebacks          inf                       # mshr miss rate for CleanEvict accesses
system.l2.CleanEvict_mshr_miss_rate::total          inf                       # mshr miss rate for CleanEvict accesses
system.l2.HardPFReq_mshr_misses::.l2.prefetcher        97398                       # number of HardPFReq MSHR misses
system.l2.HardPFReq_mshr_misses::total          97398                       # number of HardPFReq MSHR misses
system.l2.HardPFReq_mshr_miss_latency::.l2.prefetcher   6707076197                       # number of HardPFReq MSHR miss cycles
system.l2.HardPFReq_mshr_miss_latency::total   6707076197                       # number of HardPFReq MSHR miss cycles
system.l2.HardPFReq_mshr_miss_rate::.l2.prefetcher          inf                       # mshr miss rate for HardPFReq accesses
system.l2.HardPFReq_mshr_miss_rate::total          inf                       # mshr miss rate for HardPFReq accesses
system.l2.HardPFReq_avg_mshr_miss_latency::.l2.prefetcher 68862.565936                       # average HardPFReq mshr miss latency
system.l2.HardPFReq_avg_mshr_miss_latency::total 68862.565936                       # average HardPFReq mshr miss latency
system.l2.ReadExReq_hits::.switch_cpus.data        40113                       # number of ReadExReq hits
system.l2.ReadExReq_hits::total                 40113                       # number of ReadExReq hits
system.l2.ReadExReq_misses::.switch_cpus.data        39597                       # number of ReadExReq misses
system.l2.ReadExReq_misses::total               39597                       # number of ReadExReq misses
system.l2.ReadExReq_miss_latency::.switch_cpus.data   3536667500                       # number of ReadExReq miss cycles
system.l2.ReadExReq_miss_latency::total    3536667500                       # number of ReadExReq miss cycles
system.l2.ReadExReq_accesses::.switch_cpus.data        79710                       # number of ReadExReq accesses(hits+misses)
system.l2.ReadExReq_accesses::total             79710                       # number of ReadExReq accesses(hits+misses)
system.l2.ReadExReq_miss_rate::.switch_cpus.data     0.496763                       # miss rate for ReadExReq accesses
system.l2.ReadExReq_miss_rate::total         0.496763                       # miss rate for ReadExReq accesses
system.l2.ReadExReq_avg_miss_latency::.switch_cpus.data 89316.551759                       # average ReadExReq miss latency
system.l2.ReadExReq_avg_miss_latency::total 89316.551759                       # average ReadExReq miss latency
system.l2.ReadExReq_mshr_misses::.switch_cpus.data        39597                       # number of ReadExReq MSHR misses
system.l2.ReadExReq_mshr_misses::total          39597                       # number of ReadExReq MSHR misses
system.l2.ReadExReq_mshr_miss_latency::.switch_cpus.data   3140697500                       # number of ReadExReq MSHR miss cycles
system.l2.ReadExReq_mshr_miss_latency::total   3140697500                       # number of ReadExReq MSHR miss cycles
system.l2.ReadExReq_mshr_miss_rate::.switch_cpus.data     0.496763                       # mshr miss rate for ReadExReq accesses
system.l2.ReadExReq_mshr_miss_rate::total     0.496763                       # mshr miss rate for ReadExReq accesses
system.l2.ReadExReq_avg_mshr_miss_latency::.switch_cpus.data 79316.551759                       # average ReadExReq mshr miss latency
system.l2.ReadExReq_avg_mshr_miss_latency::total 79316.551759                       # average ReadExReq mshr miss latency
[...]
system.cpu.icache.tags.data_accesses         22247460                       # Number of data accesses
system.cpu.dtb.walker.pwrStateResidencyTicks::UNDEFINED 92976082826500                       # Cumulative time (in ticks) in various power states
system.cpu.interrupts.clk_domain.clock           8000                       # Clock period in ticks
system.cpu.itb_walker_cache.pwrStateResidencyTicks::UNDEFINED 92976082826500                       # Cumulative time (in ticks) in various power states
system.cpu.itb_walker_cache.blocked_cycles::no_mshrs            0                       # number of cycles access was blocked
system.cpu.itb_walker_cache.blocked_cycles::no_targets            0                       # number of cycles access was blocked
system.cpu.itb_walker_cache.blocked::no_mshrs            0                       # number of cycles access was blocked
system.cpu.itb_walker_cache.blocked::no_targets            0                       # number of cycles access was blocked
system.cpu.itb_walker_cache.avg_blocked_cycles::no_mshrs          nan                       # average number of cycles each access was blocked
system.cpu.itb_walker_cache.avg_blocked_cycles::no_targets          nan                       # average number of cycles each access was blocked
system.cpu.itb_walker_cache.replacements            0                       # number of replacements
system.cpu.itb_walker_cache.tags.pwrStateResidencyTicks::UNDEFINED 92976082826500                       # Cumulative time (in ticks) in various power states
system.cpu.itb_walker_cache.tags.tagsinuse            0                       # Cycle average of tags in use
system.cpu.itb_walker_cache.tags.total_refs            0                       # Total number of references to valid blocks.
system.cpu.itb_walker_cache.tags.sampled_refs            0                       # Sample count of references to valid blocks.
system.cpu.itb_walker_cache.tags.avg_refs          nan                       # Average number of references to valid blocks.
system.cpu.itb_walker_cache.tags.warmup_cycle            0                       # Cycle when the warmup percentage was hit.
system.cpu.itb_walker_cache.tags.tag_accesses            0                       # Number of tag accesses
system.cpu.itb_walker_cache.tags.data_accesses            0                       # Number of data accesses
system.cpu.itb.walker.pwrStateResidencyTicks::UNDEFINED 92976082826500                       # Cumulative time (in ticks) in various power states
system.cpu.dtb_walker_cache.pwrStateResidencyTicks::UNDEFINED 92976082826500                       # Cumulative time (in ticks) in various power states
system.cpu.dtb_walker_cache.blocked_cycles::no_mshrs            0                       # number of cycles access was blocked
system.cpu.dtb_walker_cache.blocked_cycles::no_targets            0                       # number of cycles access was blocked
system.cpu.dtb_walker_cache.blocked::no_mshrs            0                       # number of cycles access was blocked
system.cpu.dtb_walker_cache.blocked::no_targets            0                       # number of cycles access was blocked
system.cpu.dtb_walker_cache.avg_blocked_cycles::no_mshrs          nan                       # average number of cycles each access was blocked
system.cpu.dtb_walker_cache.avg_blocked_cycles::no_targets          nan                       # average number of cycles each access was blocked
system.cpu.dtb_walker_cache.replacements            0                       # number of replacements
system.cpu.dtb_walker_cache.tags.pwrStateResidencyTicks::UNDEFINED 92976082826500                       # Cumulative time (in ticks) in various power states
system.cpu.dtb_walker_cache.tags.tagsinuse            0                       # Cycle average of tags in use
system.cpu.dtb_walker_cache.tags.total_refs            0                       # Total number of references to valid blocks.
system.cpu.dtb_walker_cache.tags.sampled_refs            0                       # Sample count of references to valid blocks.
system.cpu.dtb_walker_cache.tags.avg_refs          nan                       # Average number of references to valid blocks.
system.cpu.dtb_walker_cache.tags.warmup_cycle            0                       # Cycle when the warmup percentage was hit.
system.cpu.dtb_walker_cache.tags.tag_accesses            0                       # Number of tag accesses
system.cpu.dtb_walker_cache.tags.data_accesses            0                       # Number of data accesses
system.cpu.dcache.pwrStateResidencyTicks::UNDEFINED 92976082826500                       # Cumulative time (in ticks) in various power states
system.cpu.dcache.demand_hits::.cpu.data            1                       # number of demand (read+write) hits
system.cpu.dcache.demand_hits::.switch_cpus.data     13375554                       # number of demand (read+write) hits
system.cpu.dcache.demand_hits::total         13375555                       # number of demand (read+write) hits
system.cpu.dcache.overall_hits::.cpu.data            1                       # number of overall hits
system.cpu.dcache.overall_hits::.switch_cpus.data     13375554                       # number of overall hits
system.cpu.dcache.overall_hits::total        13375555                       # number of overall hits
system.cpu.dcache.demand_misses::.cpu.data            3                       # number of demand (read+write) misses
system.cpu.dcache.demand_misses::.switch_cpus.data      8964566                       # number of demand (read+write) misses
system.cpu.dcache.demand_misses::total        8964569                       # number of demand (read+write) misses
system.cpu.dcache.overall_misses::.cpu.data            3                       # number of overall misses
system.cpu.dcache.overall_misses::.switch_cpus.data      8964566                       # number of overall misses
system.cpu.dcache.overall_misses::total       8964569                       # number of overall misses
system.cpu.dcache.demand_miss_latency::.switch_cpus.data 460298205374                       # number of demand (read+write) miss cycles
system.cpu.dcache.demand_miss_latency::total 460298205374                       # number of demand (read+write) miss cycles
system.cpu.dcache.overall_miss_latency::.switch_cpus.data 460298205374                       # number of overall miss cycles
system.cpu.dcache.overall_miss_latency::total 460298205374                       # number of overall miss cycles
system.cpu.dcache.demand_accesses::.cpu.data            4                       # number of demand (read+write) accesses
system.cpu.dcache.demand_accesses::.switch_cpus.data     22340120                       # number of demand (read+write) accesses
system.cpu.dcache.demand_accesses::total     22340124                       # number of demand (read+write) accesses
system.cpu.dcache.overall_accesses::.cpu.data            4                       # number of overall (read+write) accesses
system.cpu.dcache.overall_accesses::.switch_cpus.data     22340120                       # number of overall (read+write) accesses
system.cpu.dcache.overall_accesses::total     22340124                       # number of overall (read+write) accesses
system.cpu.dcache.demand_miss_rate::.cpu.data     0.750000                       # miss rate for demand accesses
system.cpu.dcache.demand_miss_rate::.switch_cpus.data     0.401277                       # miss rate for demand accesses
system.cpu.dcache.demand_miss_rate::total     0.401277                       # miss rate for demand accesses
system.cpu.dcache.overall_miss_rate::.cpu.data     0.750000                       # miss rate for overall accesses
system.cpu.dcache.overall_miss_rate::.switch_cpus.data     0.401277                       # miss rate for overall accesses
system.cpu.dcache.overall_miss_rate::total     0.401277                       # miss rate for overall accesses
system.cpu.dcache.demand_avg_miss_latency::.switch_cpus.data 51346.401530                       # average overall miss latency
system.cpu.dcache.demand_avg_miss_latency::total 51346.384346                       # average overall miss latency
system.cpu.dcache.overall_avg_miss_latency::.switch_cpus.data 51346.401530                       # average overall miss latency
system.cpu.dcache.overall_avg_miss_latency::total 51346.384346                       # average overall miss latency
system.cpu.dcache.blocked_cycles::no_mshrs     31519214                       # number of cycles access was blocked
system.cpu.dcache.blocked_cycles::no_targets            0                       # number of cycles access was blocked
system.cpu.dcache.blocked::no_mshrs           1130853                       # number of cycles access was blocked
system.cpu.dcache.blocked::no_targets               0                       # number of cycles access was blocked
system.cpu.dcache.avg_blocked_cycles::no_mshrs    27.872070                       # average number of cycles each access was blocked
system.cpu.dcache.avg_blocked_cycles::no_targets          nan                       # average number of cycles each access was blocked
system.cpu.dcache.writebacks::.writebacks       552393                       # number of writebacks
system.cpu.dcache.writebacks::total            552393                       # number of writebacks
system.cpu.dcache.demand_mshr_hits::.switch_cpus.data      1164733                       # number of demand (read+write) MSHR hits
system.cpu.dcache.demand_mshr_hits::total      1164733                       # number of demand (read+write) MSHR hits
system.cpu.dcache.overall_mshr_hits::.switch_cpus.data      1164733                       # number of overall MSHR hits
system.cpu.dcache.overall_mshr_hits::total      1164733                       # number of overall MSHR hits
system.cpu.dcache.demand_mshr_misses::.switch_cpus.data      7799833                       # number of demand (read+write) MSHR misses
system.cpu.dcache.demand_mshr_misses::total      7799833                       # number of demand (read+write) MSHR misses
system.cpu.dcache.overall_mshr_misses::.switch_cpus.data      7799833                       # number of overall MSHR misses
system.cpu.dcache.overall_mshr_misses::total      7799833                       # number of overall MSHR misses
system.cpu.dcache.demand_mshr_miss_latency::.switch_cpus.data 394556299876                       # number of demand (read+write) MSHR miss cycles
system.cpu.dcache.demand_mshr_miss_latency::total 394556299876                       # number of demand (read+write) MSHR miss cycles
system.cpu.dcache.overall_mshr_miss_latency::.switch_cpus.data 394556299876                       # number of overall MSHR miss cycles
system.cpu.dcache.overall_mshr_miss_latency::total 394556299876                       # number of overall MSHR miss cycles
system.cpu.dcache.demand_mshr_miss_rate::.switch_cpus.data     0.349140                       # mshr miss rate for demand accesses
system.cpu.dcache.demand_mshr_miss_rate::total     0.349140                       # mshr miss rate for demand accesses
system.cpu.dcache.overall_mshr_miss_rate::.switch_cpus.data     0.349140                       # mshr miss rate for overall accesses
system.cpu.dcache.overall_mshr_miss_rate::total     0.349140                       # mshr miss rate for overall accesses
system.cpu.dcache.demand_avg_mshr_miss_latency::.switch_cpus.data 50585.224052                       # average overall mshr miss latency
system.cpu.dcache.demand_avg_mshr_miss_latency::total 50585.224052                       # average overall mshr miss latency
system.cpu.dcache.overall_avg_mshr_miss_latency::.switch_cpus.data 50585.224052                       # average overall mshr miss latency
system.cpu.dcache.overall_avg_mshr_miss_latency::total 50585.224052                       # average overall mshr miss latency
system.cpu.dcache.replacements                7798811                       # number of replacements
system.cpu.dcache.ReadReq_hits::.cpu.data            1                       # number of ReadReq hits
system.cpu.dcache.ReadReq_hits::.switch_cpus.data      9062391                       # number of ReadReq hits
system.cpu.dcache.ReadReq_hits::total         9062392                       # number of ReadReq hits
system.cpu.dcache.ReadReq_misses::.cpu.data            3                       # number of ReadReq misses
system.cpu.dcache.ReadReq_misses::.switch_cpus.data      8664948                       # number of ReadReq misses
system.cpu.dcache.ReadReq_misses::total       8664951                       # number of ReadReq misses
system.cpu.dcache.ReadReq_miss_latency::.switch_cpus.data 444556753500                       # number of ReadReq miss cycles
system.cpu.dcache.ReadReq_miss_latency::total 444556753500                       # number of ReadReq miss cycles
system.cpu.dcache.ReadReq_accesses::.cpu.data            4                       # number of ReadReq accesses(hits+misses)
system.cpu.dcache.ReadReq_accesses::.switch_cpus.data     17727339                       # number of ReadReq accesses(hits+misses)
system.cpu.dcache.ReadReq_accesses::total     17727343                       # number of ReadReq accesses(hits+misses)
system.cpu.dcache.ReadReq_miss_rate::.cpu.data     0.750000                       # miss rate for ReadReq accesses
system.cpu.dcache.ReadReq_miss_rate::.switch_cpus.data     0.488790                       # miss rate for ReadReq accesses
system.cpu.dcache.ReadReq_miss_rate::total     0.488790                       # miss rate for ReadReq accesses
system.cpu.dcache.ReadReq_avg_miss_latency::.switch_cpus.data 51305.184232                       # average ReadReq miss latency
system.cpu.dcache.ReadReq_avg_miss_latency::total 51305.166469                       # average ReadReq miss latency
system.cpu.dcache.ReadReq_mshr_hits::.switch_cpus.data      1164716                       # number of ReadReq MSHR hits
system.cpu.dcache.ReadReq_mshr_hits::total      1164716                       # number of ReadReq MSHR hits
system.cpu.dcache.ReadReq_mshr_misses::.switch_cpus.data      7500232                       # number of ReadReq MSHR misses
system.cpu.dcache.ReadReq_mshr_misses::total      7500232                       # number of ReadReq MSHR misses
system.cpu.dcache.ReadReq_mshr_miss_latency::.switch_cpus.data 379114963000                       # number of ReadReq MSHR miss cycles
system.cpu.dcache.ReadReq_mshr_miss_latency::total 379114963000                       # number of ReadReq MSHR miss cycles
system.cpu.dcache.ReadReq_mshr_miss_rate::.switch_cpus.data     0.423088                       # mshr miss rate for ReadReq accesses
system.cpu.dcache.ReadReq_mshr_miss_rate::total     0.423088                       # mshr miss rate for ReadReq accesses
system.cpu.dcache.ReadReq_avg_mshr_miss_latency::.switch_cpus.data 50547.098143                       # average ReadReq mshr miss latency
system.cpu.dcache.ReadReq_avg_mshr_miss_latency::total 50547.098143                       # average ReadReq mshr miss latency
system.cpu.dcache.WriteReq_hits::.switch_cpus.data      4313163                       # number of WriteReq hits
system.cpu.dcache.WriteReq_hits::total        4313163                       # number of WriteReq hits
system.cpu.dcache.WriteReq_misses::.switch_cpus.data       299618                       # number of WriteReq misses
system.cpu.dcache.WriteReq_misses::total       299618                       # number of WriteReq misses
system.cpu.dcache.WriteReq_miss_latency::.switch_cpus.data  15741451874                       # number of WriteReq miss cycles
system.cpu.dcache.WriteReq_miss_latency::total  15741451874                       # number of WriteReq miss cycles
system.cpu.dcache.WriteReq_accesses::.switch_cpus.data      4612781                       # number of WriteReq accesses(hits+misses)
system.cpu.dcache.WriteReq_accesses::total      4612781                       # number of WriteReq accesses(hits+misses)
system.cpu.dcache.WriteReq_miss_rate::.switch_cpus.data     0.064954                       # miss rate for WriteReq accesses
system.cpu.dcache.WriteReq_miss_rate::total     0.064954                       # miss rate for WriteReq accesses
system.cpu.dcache.WriteReq_avg_miss_latency::.switch_cpus.data 52538.405149                       # average WriteReq miss latency
system.cpu.dcache.WriteReq_avg_miss_latency::total 52538.405149                       # average WriteReq miss latency
system.cpu.dcache.WriteReq_mshr_hits::.switch_cpus.data           17                       # number of WriteReq MSHR hits
system.cpu.dcache.WriteReq_mshr_hits::total           17                       # number of WriteReq MSHR hits
system.cpu.dcache.WriteReq_mshr_misses::.switch_cpus.data       299601                       # number of WriteReq MSHR misses
system.cpu.dcache.WriteReq_mshr_misses::total       299601                       # number of WriteReq MSHR misses
system.cpu.dcache.WriteReq_mshr_miss_latency::.switch_cpus.data  15441336876                       # number of WriteReq MSHR miss cycles
system.cpu.dcache.WriteReq_mshr_miss_latency::total  15441336876                       # number of WriteReq MSHR miss cycles
system.cpu.dcache.WriteReq_mshr_miss_rate::.switch_cpus.data     0.064950                       # mshr miss rate for WriteReq accesses
system.cpu.dcache.WriteReq_mshr_miss_rate::total     0.064950                       # mshr miss rate for WriteReq accesses
system.cpu.dcache.WriteReq_avg_mshr_miss_latency::.switch_cpus.data 51539.670682                       # average WriteReq mshr miss latency
system.cpu.dcache.WriteReq_avg_mshr_miss_latency::total 51539.670682                       # average WriteReq mshr miss latency
system.cpu.dcache.tags.pwrStateResidencyTicks::UNDEFINED 92976082826500                       # Cumulative time (in ticks) in various power states
system.cpu.dcache.tags.tagsinuse             2.147341                       # Cycle average of tags in use
system.cpu.dcache.tags.total_refs            21175390                       # Total number of references to valid blocks.
system.cpu.dcache.tags.sampled_refs           7799835                       # Sample count of references to valid blocks.
system.cpu.dcache.tags.avg_refs              2.714851                       # Average number of references to valid blocks.
system.cpu.dcache.tags.warmup_cycle      92781095431500                       # Cycle when the warmup percentage was hit.
system.cpu.dcache.tags.occ_blocks::.cpu.data     0.000001                       # Average occupied blocks per requestor
system.cpu.dcache.tags.occ_blocks::.switch_cpus.data     2.147340                       # Average occupied blocks per requestor
system.cpu.dcache.tags.occ_percent::.cpu.data     0.000000                       # Average percentage of cache occupancy
system.cpu.dcache.tags.occ_percent::.switch_cpus.data     0.002097                       # Average percentage of cache occupancy
system.cpu.dcache.tags.occ_percent::total     0.002097                       # Average percentage of cache occupancy
system.cpu.dcache.tags.occ_task_id_blocks::1024         1024                       # Occupied blocks per task id
system.cpu.dcache.tags.age_task_id_blocks_1024::0          413                       # Occupied blocks per task id
system.cpu.dcache.tags.age_task_id_blocks_1024::1          608                       # Occupied blocks per task id
system.cpu.dcache.tags.age_task_id_blocks_1024::2            3                       # Occupied blocks per task id
system.cpu.dcache.tags.occ_task_id_percent::1024            1                       # Percentage of cache occupancy per task id
system.cpu.dcache.tags.tag_accesses          52480083                       # Number of tag accesses
system.cpu.dcache.tags.data_accesses         52480083                       # Number of data accesses

---------- End Simulation Statistics   ----------
