
---------- Begin Simulation Statistics ----------
final_tick                               70892909884500                       # Number of ticks from beginning of simulation (restored from checkpoints and never reset)
host_inst_rate                                  50267                       # Simulator instruction rate (inst/s)
host_mem_usage                                 791624                       # Number of bytes of host memory used
host_op_rate                                    80569                       # Simulator op (including micro ops) rate (op/s)
host_seconds                                   198.94                       # Real time elapsed on the host
host_tick_rate                               13575087                       # Simulator tick rate (ticks/s)
sim_freq                                 1000000000000                       # Frequency of simulated ticks
sim_insts                                    10000010                       # Number of instructions simulated
sim_ops                                      16028373                       # Number of ops (including micro ops) simulated
sim_seconds                                  0.002701                       # Number of seconds simulated
sim_ticks                                  2700608250                       # Number of ticks simulated
system.cpu.committedInsts                          10                       # Number of instructions committed
system.cpu.committedOps                            14                       # Number of ops (including micro ops) committed
system.cpu.dtb.rdAccesses                           5                       # TLB accesses on read requests
system.cpu.dtb.rdMisses                             0                       # TLB misses on read requests
system.cpu.dtb.wrAccesses                           2                       # TLB accesses on write requests
system.cpu.dtb.wrMisses                             0                       # TLB misses on write requests
system.cpu.idle_fraction                            0                       # Percentage of idle cycles
system.cpu.itb.rdAccesses                           0                       # TLB accesses on read requests
system.cpu.itb.rdMisses                             0                       # TLB misses on read requests
system.cpu.itb.wrAccesses                          15                       # TLB accesses on write requests
system.cpu.itb.wrMisses                             0                       # TLB misses on write requests
system.cpu.not_idle_fraction                        1                       # Percentage of non-idle cycles
system.cpu.numCycles                               19                       # number of cpu cycles simulated
system.cpu.numWorkItemsCompleted                    0                       # number of work items this cpu completed
system.cpu.numWorkItemsStarted                      0                       # number of work items this cpu started
system.cpu.num_busy_cycles                         19                       # Number of busy cycles
system.cpu.num_cc_register_reads                   20                       # number of times the CC registers were read
system.cpu.num_cc_register_writes                   6                       # number of times the CC registers were written
system.cpu.num_conditional_control_insts            0                       # number of instructions that are conditional controls
system.cpu.num_fp_alu_accesses                      0                       # Number of float alu accesses
system.cpu.num_fp_insts                             0                       # number of float instructions
system.cpu.num_fp_register_reads                    0                       # number of times the floating registers were read
system.cpu.num_fp_register_writes                   0                       # number of times the floating registers were written
system.cpu.num_func_calls                           0                       # number of times a function call or return occured
system.cpu.num_idle_cycles                          0                       # Number of idle cycles
system.cpu.num_int_alu_accesses                    14                       # Number of integer alu accesses
system.cpu.num_int_insts                           14                       # number of integer instructions
system.cpu.num_int_register_reads                  41                       # number of times the integer registers were read
system.cpu.num_int_register_writes                 12                       # number of times the integer registers were written
system.cpu.num_load_insts                           5                       # Number of load instructions
system.cpu.num_mem_refs                             7                       # number of memory refs
system.cpu.num_store_insts                          2                       # Number of store instructions
system.cpu.num_vec_alu_accesses                     0                       # Number of vector alu accesses
system.cpu.num_vec_insts                            0                       # number of vector instructions
system.cpu.num_vec_register_reads                   0                       # number of times the vector registers were read
system.cpu.num_vec_register_writes                  0                       # number of times the vector registers were written
system.cpu.op_class::No_OpClass                     0      0.00%      0.00% # Class of executed instruction
system.cpu.op_class::IntAlu                         7     50.00%     50.00% # Class of executed instruction
system.cpu.op_class::IntMult                        0      0.00%     50.00% # Class of executed instruction
system.cpu.op_class::IntDiv                         0      0.00%     50.00% # Class of executed instruction
system.cpu.op_class::FloatAdd                       0      0.00%     50.00% # Class of executed instruction
system.cpu.op_class::FloatCmp                       0      0.00%     50.00% # Class of executed instruction
system.cpu.op_class::FloatCvt                       0      0.00%     50.00% # Class of executed instruction
system.cpu.op_class::FloatMult                      0      0.00%     50.00% # Class of executed instruction
system.cpu.op_class::FloatMultAcc                   0      0.00%     50.00% # Class of executed instruction
system.cpu.op_class::FloatDiv                       0      0.00%     50.00% # Class of executed instruction
system.cpu.op_class::FloatMisc                      0      0.00%     50.00% # Class of executed instruction
system.cpu.op_class::FloatSqrt                      0      0.00%     50.00% # Class of executed instruction
system.cpu.op_class::SimdAdd                        0      0.00%     50.00% # Class of executed instruction
system.cpu.op_class::SimdAddAcc                     0      0.00%     50.00% # Class of executed instruction
system.cpu.op_class::SimdAlu                        0      0.00%     50.00% # Class of executed instruction
system.cpu.op_class::SimdCmp                        0      0.00%     50.00% # Class of executed instruction
system.cpu.op_class::SimdCvt                        0      0.00%     50.00% # Class of executed instruction
system.cpu.op_class::SimdMisc                       0      0.00%     50.00% # Class of executed instruction
system.cpu.op_class::SimdMult                       0      0.00%     50.00% # Class of executed instruction
system.cpu.op_class::SimdMultAcc                    0      0.00%     50.00% # Class of executed instruction
system.cpu.op_class::SimdShift                      0      0.00%     50.00% # Class of executed instruction
system.cpu.op_class::SimdShiftAcc                   0      0.00%     50.00% # Class of executed instruction
system.cpu.op_class::SimdDiv                        0      0.00%     50.00% # Class of executed instruction
system.cpu.op_class::SimdSqrt                       0      0.00%     50.00% # Class of executed instruction
system.cpu.op_class::SimdFloatAdd                   0      0.00%     50.00% # Class of executed instruction
system.cpu.op_class::SimdFloatAlu                   0      0.00%     50.00% # Class of executed instruction
system.cpu.op_class::SimdFloatCmp                   0      0.00%     50.00% # Class of executed instruction
system.cpu.op_class::SimdFloatCvt                   0      0.00%     50.00% # Class of executed instruction
system.cpu.op_class::SimdFloatDiv                   0      0.00%     50.00% # Class of executed instruction
system.cpu.op_class::SimdFloatMisc                  0      0.00%     50.00% # Class of executed instruction
system.cpu.op_class::SimdFloatMult                  0      0.00%     50.00% # Class of executed instruction
system.cpu.op_class::SimdFloatMultAcc               0      0.00%     50.00% # Class of executed instruction
system.cpu.op_class::SimdFloatSqrt                  0      0.00%     50.00% # Class of executed instruction
system.cpu.op_class::SimdReduceAdd                  0      0.00%     50.00% # Class of executed instruction
system.cpu.op_class::SimdReduceAlu                  0      0.00%     50.00% # Class of executed instruction
system.cpu.op_class::SimdReduceCmp                  0      0.00%     50.00% # Class of executed instruction
system.cpu.op_class::SimdFloatReduceAdd             0      0.00%     50.00% # Class of executed instruction
system.cpu.op_class::SimdFloatReduceCmp             0      0.00%     50.00% # Class of executed instruction
system.cpu.op_class::SimdAes                        0      0.00%     50.00% # Class of executed instruction
system.cpu.op_class::SimdAesMix                     0      0.00%     50.00% # Class of executed instruction
system.cpu.op_class::SimdSha1Hash                   0      0.00%     50.00% # Class of executed instruction
system.cpu.op_class::SimdSha1Hash2                  0      0.00%     50.00% # Class of executed instruction
system.cpu.op_class::SimdSha256Hash                 0      0.00%     50.00% # Class of executed instruction
system.cpu.op_class::SimdSha256Hash2                0      0.00%     50.00% # Class of executed instruction
system.cpu.op_class::SimdShaSigma2                  0      0.00%     50.00% # Class of executed instruction
system.cpu.op_class::SimdShaSigma3                  0      0.00%     50.00% # Class of executed instruction
system.cpu.op_class::SimdPredAlu                    0      0.00%     50.00% # Class of executed instruction
system.cpu.op_class::MemRead                        5     35.71%     85.71% # Class of executed instruction
system.cpu.op_class::MemWrite                       2     14.29%    100.00% # Class of executed instruction
system.cpu.op_class::FloatMemRead                   0      0.00%    100.00% # Class of executed instruction
system.cpu.op_class::FloatMemWrite                  0      0.00%    100.00% # Class of executed instruction
system.cpu.op_class::IprAccess                      0      0.00%    100.00% # Class of executed instruction
system.cpu.op_class::InstPrefetch                   0      0.00%    100.00% # Class of executed instruction
system.cpu.op_class::total                         14                       # Class of executed instruction
system.cpu.workload.numSyscalls                     0                       # Number of system calls
system.membus.snoop_filter.hit_multi_requests            0                       # Number of requests hitting in the snoop filter with multiple (>1) holders of the requested data.
system.membus.snoop_filter.hit_multi_snoops            0                       # Number of snoops hitting in the snoop filter with multiple (>1) holders of the requested data.
system.membus.snoop_filter.hit_single_requests         2210                       # Number of requests hitting in the snoop filter with a single holder of the requested data.
system.membus.snoop_filter.hit_single_snoops            0                       # Number of snoops hitting in the snoop filter with a single holder of the requested data.
system.membus.snoop_filter.tot_requests          6622                       # Total number of requests made to the snoop filter.
system.membus.snoop_filter.tot_snoops               0                       # Total number of snoops made to the snoop filter.
system.switch_cpus.branchPred.BTBCorrect            0                       # Number of correct BTB predictions (this stat may not work properly.
system.switch_cpus.branchPred.BTBHitPct      0.000000                       # BTB Hit Percentage
system.switch_cpus.branchPred.BTBHits               0                       # Number of BTB hits
system.switch_cpus.branchPred.BTBLookups       622449                       # Number of BTB lookups
system.switch_cpus.branchPred.RASInCorrect            1                       # Number of incorrect RAS predictions.
system.switch_cpus.branchPred.condIncorrect        20023                       # Number of conditional branches incorrect
system.switch_cpus.branchPred.condPredicted       858274                       # Number of conditional branches predicted
system.switch_cpus.branchPred.indirectHits       496549                       # Number of indirect target hits.
system.switch_cpus.branchPred.indirectLookups       622449                       # Number of indirect predictor lookups.
system.switch_cpus.branchPred.indirectMisses       125900                       # Number of indirect misses.
system.switch_cpus.branchPred.lookups          940190                       # Number of BP lookups
system.switch_cpus.branchPred.usedRAS           40202                       # Number of times the RAS was used to get a target.
system.switch_cpus.branchPredindirectMispredicted         2721                       # Number of mispredicted indirect branches.
system.switch_cpus.cc_regfile_reads          14091938                       # number of cc regfile reads
system.switch_cpus.cc_regfile_writes          7119682                       # number of cc regfile writes
system.switch_cpus.commit.amos                      0                       # Number of atomic instructions committed
system.switch_cpus.commit.branchMispredicts        20050                       # The number of times a branch was mispredicted
system.switch_cpus.commit.branches             714318                       # Number of branches committed
system.switch_cpus.commit.bw_lim_events       1282756                       # number cycles where commit BW limit reached
system.switch_cpus.commit.commitSquashedInsts      1221293                       # The number of squashed insts skipped by commit
system.switch_cpus.commit.committedInsts     10000000                       # Number of instructions committed
system.switch_cpus.commit.committedOps       16028359                       # Number of ops (including micro ops) committed
system.switch_cpus.commit.committed_per_cycle::samples      5227985                       # Number of insts commited each cycle
system.switch_cpus.commit.committed_per_cycle::mean     3.065877                       # Number of insts commited each cycle
system.switch_cpus.commit.committed_per_cycle::stdev     3.145061                       # Number of insts commited each cycle
system.switch_cpus.commit.committed_per_cycle::underflows            0      0.00%      0.00% # Number of insts commited each cycle
system.switch_cpus.commit.committed_per_cycle::0       993890     19.01%     19.01% # Number of insts commited each cycle
system.switch_cpus.commit.committed_per_cycle::1      1875515     35.87%     54.89% # Number of insts commited each cycle
system.switch_cpus.commit.committed_per_cycle::2       401887      7.69%     62.57% # Number of insts commited each cycle
system.switch_cpus.commit.committed_per_cycle::3       189408      3.62%     66.20% # Number of insts commited each cycle
system.switch_cpus.commit.committed_per_cycle::4       147107      2.81%     69.01% # Number of insts commited each cycle
system.switch_cpus.commit.committed_per_cycle::5       146089      2.79%     71.80% # Number of insts commited each cycle
system.switch_cpus.commit.committed_per_cycle::6       139406      2.67%     74.47% # Number of insts commited each cycle
system.switch_cpus.commit.committed_per_cycle::7        51927      0.99%     75.46% # Number of insts commited each cycle
system.switch_cpus.commit.committed_per_cycle::8      1282756     24.54%    100.00% # Number of insts commited each cycle
system.switch_cpus.commit.committed_per_cycle::overflows            0      0.00%    100.00% # Number of insts commited each cycle
system.switch_cpus.commit.committed_per_cycle::min_value            0                       # Number of insts commited each cycle
system.switch_cpus.commit.committed_per_cycle::max_value            8                       # Number of insts commited each cycle
system.switch_cpus.commit.committed_per_cycle::total      5227985                       # Number of insts commited each cycle
system.switch_cpus.commit.fp_insts            1417974                       # Number of committed floating point instructions.
system.switch_cpus.commit.function_calls        31902                       # Number of function calls committed.
system.switch_cpus.commit.int_insts          14812880                       # Number of committed integer instructions.
system.switch_cpus.commit.loads               3609577                       # Number of loads committed
system.switch_cpus.commit.membars                   0                       # Number of memory barriers committed
system.switch_cpus.commit.op_class_0::No_OpClass        95071      0.59%      0.59% # Class of committed instruction
system.switch_cpus.commit.op_class_0::IntAlu      9822899     61.28%     61.88% # Class of committed instruction
system.switch_cpus.commit.op_class_0::IntMult        84240      0.53%     62.40% # Class of committed instruction
system.switch_cpus.commit.op_class_0::IntDiv            0      0.00%     62.40% # Class of committed instruction
system.switch_cpus.commit.op_class_0::FloatAdd        32039      0.20%     62.60% # Class of committed instruction
system.switch_cpus.commit.op_class_0::FloatCmp            0      0.00%     62.60% # Class of committed instruction
system.switch_cpus.commit.op_class_0::FloatCvt            0      0.00%     62.60% # Class of committed instruction
system.switch_cpus.commit.op_class_0::FloatMult            0      0.00%     62.60% # Class of committed instruction
system.switch_cpus.commit.op_class_0::FloatMultAcc            0      0.00%     62.60% # Class of committed instruction
system.switch_cpus.commit.op_class_0::FloatDiv            0      0.00%     62.60% # Class of committed instruction
system.switch_cpus.commit.op_class_0::FloatMisc            0      0.00%     62.60% # Class of committed instruction
system.switch_cpus.commit.op_class_0::FloatSqrt            0      0.00%     62.60% # Class of committed instruction
system.switch_cpus.commit.op_class_0::SimdAdd        21142      0.13%     62.73% # Class of committed instruction
system.switch_cpus.commit.op_class_0::SimdAddAcc            0      0.00%     62.73% # Class of committed instruction
system.switch_cpus.commit.op_class_0::SimdAlu       327752      2.04%     64.78% # Class of committed instruction
system.switch_cpus.commit.op_class_0::SimdCmp            0      0.00%     64.78% # Class of committed instruction
system.switch_cpus.commit.op_class_0::SimdCvt       126470      0.79%     65.57% # Class of committed instruction
system.switch_cpus.commit.op_class_0::SimdMisc       158042      0.99%     66.55% # Class of committed instruction
system.switch_cpus.commit.op_class_0::SimdMult            0      0.00%     66.55% # Class of committed instruction
system.switch_cpus.commit.op_class_0::SimdMultAcc            0      0.00%     66.55% # Class of committed instruction
system.switch_cpus.commit.op_class_0::SimdShift        63426      0.40%     66.95% # Class of committed instruction
system.switch_cpus.commit.op_class_0::SimdShiftAcc            0      0.00%     66.95% # Class of committed instruction
system.switch_cpus.commit.op_class_0::SimdDiv            0      0.00%     66.95% # Class of committed instruction
system.switch_cpus.commit.op_class_0::SimdSqrt            0      0.00%     66.95% # Class of committed instruction
system.switch_cpus.commit.op_class_0::SimdFloatAdd       107090      0.67%     67.62% # Class of committed instruction
system.switch_cpus.commit.op_class_0::SimdFloatAlu            0      0.00%     67.62% # Class of committed instruction
system.switch_cpus.commit.op_class_0::SimdFloatCmp           27      0.00%     67.62% # Class of committed instruction
system.switch_cpus.commit.op_class_0::SimdFloatCvt       149566      0.93%     68.55% # Class of committed instruction
system.switch_cpus.commit.op_class_0::SimdFloatDiv        21087      0.13%     68.68% # Class of committed instruction
system.switch_cpus.commit.op_class_0::SimdFloatMisc            0      0.00%     68.68% # Class of committed instruction
system.switch_cpus.commit.op_class_0::SimdFloatMult        10842      0.07%     68.75% # Class of committed instruction
system.switch_cpus.commit.op_class_0::SimdFloatMultAcc            0      0.00%     68.75% # Class of committed instruction
system.switch_cpus.commit.op_class_0::SimdFloatSqrt            0      0.00%     68.75% # Class of committed instruction
system.switch_cpus.commit.op_class_0::SimdReduceAdd            0      0.00%     68.75% # Class of committed instruction
system.switch_cpus.commit.op_class_0::SimdReduceAlu            0      0.00%     68.75% # Class of committed instruction
system.switch_cpus.commit.op_class_0::SimdReduceCmp            0      0.00%     68.75% # Class of committed instruction
system.switch_cpus.commit.op_class_0::SimdFloatReduceAdd            0      0.00%     68.75% # Class of committed instruction
system.switch_cpus.commit.op_class_0::SimdFloatReduceCmp            0      0.00%     68.75% # Class of committed instruction
system.switch_cpus.commit.op_class_0::SimdAes            0      0.00%     68.75% # Class of committed instruction
system.switch_cpus.commit.op_class_0::SimdAesMix            0      0.00%     68.75% # Class of committed instruction
system.switch_cpus.commit.op_class_0::SimdSha1Hash            0      0.00%     68.75% # Class of committed instruction
system.switch_cpus.commit.op_class_0::SimdSha1Hash2            0      0.00%     68.75% # Class of committed instruction
system.switch_cpus.commit.op_class_0::SimdSha256Hash            0      0.00%     68.75% # Class of committed instruction
system.switch_cpus.commit.op_class_0::SimdSha256Hash2            0      0.00%     68.75% # Class of committed instruction
system.switch_cpus.commit.op_class_0::SimdShaSigma2            0      0.00%     68.75% # Class of committed instruction
system.switch_cpus.commit.op_class_0::SimdShaSigma3            0      0.00%     68.75% # Class of committed instruction
system.switch_cpus.commit.op_class_0::SimdPredAlu            0      0.00%     68.75% # Class of committed instruction
system.switch_cpus.commit.op_class_0::MemRead      3386158     21.13%     89.88% # Class of committed instruction
system.switch_cpus.commit.op_class_0::MemWrite      1398812      8.73%     98.60% # Class of committed instruction
system.switch_cpus.commit.op_class_0::FloatMemRead       223419      1.39%    100.00% # Class of committed instruction
system.switch_cpus.commit.op_class_0::FloatMemWrite          277      0.00%    100.00% # Class of committed instruction
system.switch_cpus.commit.op_class_0::IprAccess            0      0.00%    100.00% # Class of committed instruction
system.switch_cpus.commit.op_class_0::InstPrefetch            0      0.00%    100.00% # Class of committed instruction
system.switch_cpus.commit.op_class_0::total     16028359                       # Class of committed instruction
system.switch_cpus.commit.refs                5008666                       # Number of memory references committed
system.switch_cpus.commit.swp_count                 0                       # Number of s/w prefetches committed
system.switch_cpus.commit.vec_insts                 0                       # Number of committed Vector instructions.
system.switch_cpus.committedInsts            10000000                       # Number of Instructions Simulated
system.switch_cpus.committedOps              16028359                       # Number of Ops (including micro ops) Simulated
system.switch_cpus.cpi                       0.540120                       # CPI: Cycles Per Instruction
system.switch_cpus.cpi_total                 0.540120                       # CPI: Total CPI of All Threads
system.switch_cpus.decode.BlockedCycles       2489938                       # Number of cycles decode is blocked
system.switch_cpus.decode.DecodedInsts       17595426                       # Number of instructions handled by decode
system.switch_cpus.decode.IdleCycles           563152                       # Number of cycles decode is idle
system.switch_cpus.decode.RunCycles           1534476                       # Number of cycles decode is running
system.switch_cpus.decode.SquashCycles          20285                       # Number of cycles decode is squashing
system.switch_cpus.decode.UnblockCycles        783896                       # Number of cycles decode is unblocking
system.switch_cpus.dtb.rdAccesses             3692920                       # TLB accesses on read requests
system.switch_cpus.dtb.rdMisses                    73                       # TLB misses on read requests
system.switch_cpus.dtb.wrAccesses             1410951                       # TLB accesses on write requests
system.switch_cpus.dtb.wrMisses                   105                       # TLB misses on write requests
system.switch_cpus.fetch.Branches              940190                       # Number of branches that fetch encountered
system.switch_cpus.fetch.CacheLines            851347                       # Number of cache lines fetched
system.switch_cpus.fetch.Cycles               4506444                       # Number of cycles fetch has run and was not squashing or blocked
system.switch_cpus.fetch.IcacheSquashes          3803                       # Number of outstanding Icache misses that were squashed
system.switch_cpus.fetch.Insts               10937754                       # Number of instructions fetch has processed
system.switch_cpus.fetch.MiscStallCycles           27                       # Number of cycles fetch has spent waiting on interrupts, or bad addresses, or out of MSHRs
system.switch_cpus.fetch.PendingTrapStallCycles          164                       # Number of stall cycles due to pending traps
system.switch_cpus.fetch.SquashCycles           40570                       # Number of cycles fetch has spent squashing
system.switch_cpus.fetch.branchRate          0.174071                       # Number of branch fetches per cycle
system.switch_cpus.fetch.icacheStallCycles       864833                       # Number of cycles fetch is stalled on an Icache miss
system.switch_cpus.fetch.predictedBranches       536751                       # Number of branches that fetch has predicted taken
system.switch_cpus.fetch.rate                2.025061                       # Number of inst fetches per cycle
system.switch_cpus.fetch.rateDist::samples      5391753                       # Number of instructions fetched each cycle (Total)
system.switch_cpus.fetch.rateDist::mean      3.306232                       # Number of instructions fetched each cycle (Total)
system.switch_cpus.fetch.rateDist::stdev     3.550397                       # Number of instructions fetched each cycle (Total)
system.switch_cpus.fetch.rateDist::underflows            0      0.00%      0.00% # Number of instructions fetched each cycle (Total)
system.switch_cpus.fetch.rateDist::0          2590115     48.04%     48.04% # Number of instructions fetched each cycle (Total)
system.switch_cpus.fetch.rateDist::1           142591      2.64%     50.68% # Number of instructions fetched each cycle (Total)
system.switch_cpus.fetch.rateDist::2            97900      1.82%     52.50% # Number of instructions fetched each cycle (Total)
system.switch_cpus.fetch.rateDist::3           149187      2.77%     55.27% # Number of instructions fetched each cycle (Total)
system.switch_cpus.fetch.rateDist::4           179548      3.33%     58.60% # Number of instructions fetched each cycle (Total)
system.switch_cpus.fetch.rateDist::5           333423      6.18%     64.78% # Number of instructions fetched each cycle (Total)
system.switch_cpus.fetch.rateDist::6           167088      3.10%     67.88% # Number of instructions fetched each cycle (Total)
system.switch_cpus.fetch.rateDist::7           202608      3.76%     71.64% # Number of instructions fetched each cycle (Total)
system.switch_cpus.fetch.rateDist::8          1529293     28.36%    100.00% # Number of instructions fetched each cycle (Total)
system.switch_cpus.fetch.rateDist::overflows            0      0.00%    100.00% # Number of instructions fetched each cycle (Total)
system.switch_cpus.fetch.rateDist::min_value            0                       # Number of instructions fetched each cycle (Total)
system.switch_cpus.fetch.rateDist::max_value            8                       # Number of instructions fetched each cycle (Total)
system.switch_cpus.fetch.rateDist::total      5391753                       # Number of instructions fetched each cycle (Total)
system.switch_cpus.fp_regfile_reads           2734308                       # number of floating regfile reads
system.switch_cpus.fp_regfile_writes          1362318                       # number of floating regfile writes
system.switch_cpus.idleCycles                    9443                       # Total number of cycles that the CPU has spent unscheduled due to idling
system.switch_cpus.iew.branchMispredicts        33592                       # Number of branch mispredicts detected at execute
system.switch_cpus.iew.exec_branches           777601                       # Number of branches executed
system.switch_cpus.iew.exec_nop                     0                       # number of nop insts executed
system.switch_cpus.iew.exec_rate             3.100650                       # Inst execution rate
system.switch_cpus.iew.exec_refs              5098506                       # number of memory reference insts executed
system.switch_cpus.iew.exec_stores            1410951                       # Number of stores executed
system.switch_cpus.iew.exec_swp                     0                       # number of swp insts executed
system.switch_cpus.iew.iewBlockCycles          144923                       # Number of cycles IEW is blocking
system.switch_cpus.iew.iewDispLoadInsts       3719785                       # Number of dispatched load instructions
system.switch_cpus.iew.iewDispNonSpecInsts            2                       # Number of dispatched non-speculative instructions
system.switch_cpus.iew.iewDispSquashedInsts          529                       # Number of squashed instructions skipped by dispatch
system.switch_cpus.iew.iewDispStoreInsts      1427309                       # Number of dispatched store instructions
system.switch_cpus.iew.iewDispatchedInsts     17249663                       # Number of instructions dispatched to IQ
system.switch_cpus.iew.iewExecLoadInsts       3687555                       # Number of load instructions executed
system.switch_cpus.iew.iewExecSquashedInsts        33744                       # Number of squashed instructions skipped in execute
system.switch_cpus.iew.iewExecutedInsts      16747220                       # Number of executed instructions
system.switch_cpus.iew.iewIQFullEvents             97                       # Number of times the IQ has become full, causing a stall
system.switch_cpus.iew.iewIdleCycles                0                       # Number of cycles IEW is idle
system.switch_cpus.iew.iewLSQFullEvents         68863                       # Number of times the LSQ has become full, causing a stall
system.switch_cpus.iew.iewSquashCycles          20285                       # Number of cycles IEW is squashing
system.switch_cpus.iew.iewUnblockCycles         69994                       # Number of cycles IEW is unblocking
system.switch_cpus.iew.lsq.thread0.blockedLoads            0                       # Number of blocked loads due to partial load-store forwarding
system.switch_cpus.iew.lsq.thread0.cacheBlocked          201                       # Number of times an access to memory failed due to the cache being blocked
system.switch_cpus.iew.lsq.thread0.forwLoads       391774                       # Number of loads that had data forwarded from stores
system.switch_cpus.iew.lsq.thread0.ignoredResponses           54                       # Number of memory responses ignored because the instruction is squashed
system.switch_cpus.iew.lsq.thread0.invAddrLoads            0                       # Number of loads ignored due to an invalid address
system.switch_cpus.iew.lsq.thread0.invAddrSwpfs            0                       # Number of software prefetches ignored due to an invalid address
system.switch_cpus.iew.lsq.thread0.memOrderViolation          265                       # Number of memory ordering violations
system.switch_cpus.iew.lsq.thread0.rescheduledLoads            0                       # Number of loads that were rescheduled
system.switch_cpus.iew.lsq.thread0.squashedLoads       110196                       # Number of loads squashed
system.switch_cpus.iew.lsq.thread0.squashedStores        28210                       # Number of stores squashed
system.switch_cpus.iew.memOrderViolationEvents          265                       # Number of memory order violations
system.switch_cpus.iew.predictedNotTakenIncorrect        28298                       # Number of branches that were predicted not taken incorrectly
system.switch_cpus.iew.predictedTakenIncorrect         5294                       # Number of branches that were predicted taken incorrectly
system.switch_cpus.iew.wb_consumers          26959674                       # num instructions consuming a value
system.switch_cpus.iew.wb_count              16730280                       # cumulative count of insts written-back
system.switch_cpus.iew.wb_fanout             0.498263                       # average fanout of values written-back
system.switch_cpus.iew.wb_producers          13432998                       # num instructions producing a value
system.switch_cpus.iew.wb_rate               3.097514                       # insts written-back per cycle
system.switch_cpus.iew.wb_sent               16737074                       # cumulative count of insts sent to commit
system.switch_cpus.int_regfile_reads         29016565                       # number of integer regfile reads
system.switch_cpus.int_regfile_writes        13077425                       # number of integer regfile writes
system.switch_cpus.ipc                       1.851442                       # IPC: Instructions Per Cycle
system.switch_cpus.ipc_total                 1.851442                       # IPC: Total IPC of All Threads
system.switch_cpus.iq.FU_type_0::No_OpClass       100014      0.60%      0.60% # Type of FU issued
system.switch_cpus.iq.FU_type_0::IntAlu      10387020     61.90%     62.49% # Type of FU issued
system.switch_cpus.iq.FU_type_0::IntMult        85900      0.51%     63.01% # Type of FU issued
system.switch_cpus.iq.FU_type_0::IntDiv             0      0.00%     63.01% # Type of FU issued
system.switch_cpus.iq.FU_type_0::FloatAdd        34626      0.21%     63.21% # Type of FU issued
system.switch_cpus.iq.FU_type_0::FloatCmp            0      0.00%     63.21% # Type of FU issued
system.switch_cpus.iq.FU_type_0::FloatCvt            0      0.00%     63.21% # Type of FU issued
system.switch_cpus.iq.FU_type_0::FloatMult            0      0.00%     63.21% # Type of FU issued
system.switch_cpus.iq.FU_type_0::FloatMultAcc            0      0.00%     63.21% # Type of FU issued
system.switch_cpus.iq.FU_type_0::FloatDiv            0      0.00%     63.21% # Type of FU issued
system.switch_cpus.iq.FU_type_0::FloatMisc            0      0.00%     63.21% # Type of FU issued
system.switch_cpus.iq.FU_type_0::FloatSqrt            0      0.00%     63.21% # Type of FU issued
system.switch_cpus.iq.FU_type_0::SimdAdd        21142      0.13%     63.34% # Type of FU issued
system.switch_cpus.iq.FU_type_0::SimdAddAcc            0      0.00%     63.34% # Type of FU issued
system.switch_cpus.iq.FU_type_0::SimdAlu       341718      2.04%     65.37% # Type of FU issued
system.switch_cpus.iq.FU_type_0::SimdCmp            0      0.00%     65.37% # Type of FU issued
system.switch_cpus.iq.FU_type_0::SimdCvt       128839      0.77%     66.14% # Type of FU issued
system.switch_cpus.iq.FU_type_0::SimdMisc       160098      0.95%     67.10% # Type of FU issued
system.switch_cpus.iq.FU_type_0::SimdMult            0      0.00%     67.10% # Type of FU issued
system.switch_cpus.iq.FU_type_0::SimdMultAcc            0      0.00%     67.10% # Type of FU issued
system.switch_cpus.iq.FU_type_0::SimdShift        63476      0.38%     67.47% # Type of FU issued
system.switch_cpus.iq.FU_type_0::SimdShiftAcc            0      0.00%     67.47% # Type of FU issued
system.switch_cpus.iq.FU_type_0::SimdDiv            0      0.00%     67.47% # Type of FU issued
system.switch_cpus.iq.FU_type_0::SimdSqrt            0      0.00%     67.47% # Type of FU issued
system.switch_cpus.iq.FU_type_0::SimdFloatAdd       138305      0.82%     68.30% # Type of FU issued
system.switch_cpus.iq.FU_type_0::SimdFloatAlu            0      0.00%     68.30% # Type of FU issued
system.switch_cpus.iq.FU_type_0::SimdFloatCmp           46      0.00%     68.30% # Type of FU issued
system.switch_cpus.iq.FU_type_0::SimdFloatCvt       175247      1.04%     69.34% # Type of FU issued
system.switch_cpus.iq.FU_type_0::SimdFloatDiv        23050      0.14%     69.48% # Type of FU issued
system.switch_cpus.iq.FU_type_0::SimdFloatMisc            0      0.00%     69.48% # Type of FU issued
system.switch_cpus.iq.FU_type_0::SimdFloatMult        12830      0.08%     69.56% # Type of FU issued
system.switch_cpus.iq.FU_type_0::SimdFloatMultAcc            0      0.00%     69.56% # Type of FU issued
system.switch_cpus.iq.FU_type_0::SimdFloatSqrt            0      0.00%     69.56% # Type of FU issued
system.switch_cpus.iq.FU_type_0::SimdReduceAdd            0      0.00%     69.56% # Type of FU issued
system.switch_cpus.iq.FU_type_0::SimdReduceAlu            0      0.00%     69.56% # Type of FU issued
system.switch_cpus.iq.FU_type_0::SimdReduceCmp            0      0.00%     69.56% # Type of FU issued
system.switch_cpus.iq.FU_type_0::SimdFloatReduceAdd            0      0.00%     69.56% # Type of FU issued
system.switch_cpus.iq.FU_type_0::SimdFloatReduceCmp            0      0.00%     69.56% # Type of FU issued
system.switch_cpus.iq.FU_type_0::SimdAes            0      0.00%     69.56% # Type of FU issued
system.switch_cpus.iq.FU_type_0::SimdAesMix            0      0.00%     69.56% # Type of FU issued
system.switch_cpus.iq.FU_type_0::SimdSha1Hash            0      0.00%     69.56% # Type of FU issued
system.switch_cpus.iq.FU_type_0::SimdSha1Hash2            0      0.00%     69.56% # Type of FU issued
system.switch_cpus.iq.FU_type_0::SimdSha256Hash            0      0.00%     69.56% # Type of FU issued
system.switch_cpus.iq.FU_type_0::SimdSha256Hash2            0      0.00%     69.56% # Type of FU issued
system.switch_cpus.iq.FU_type_0::SimdShaSigma2            0      0.00%     69.56% # Type of FU issued
system.switch_cpus.iq.FU_type_0::SimdShaSigma3            0      0.00%     69.56% # Type of FU issued
system.switch_cpus.iq.FU_type_0::SimdPredAlu            0      0.00%     69.56% # Type of FU issued
system.switch_cpus.iq.FU_type_0::MemRead      3417523     20.37%     89.92% # Type of FU issued
system.switch_cpus.iq.FU_type_0::MemWrite      1412595      8.42%     98.34% # Type of FU issued
system.switch_cpus.iq.FU_type_0::FloatMemRead       278114      1.66%    100.00% # Type of FU issued
system.switch_cpus.iq.FU_type_0::FloatMemWrite          422      0.00%    100.00% # Type of FU issued
system.switch_cpus.iq.FU_type_0::IprAccess            0      0.00%    100.00% # Type of FU issued
system.switch_cpus.iq.FU_type_0::InstPrefetch            0      0.00%    100.00% # Type of FU issued
system.switch_cpus.iq.FU_type_0::total       16780965                       # Type of FU issued
system.switch_cpus.iq.fp_alu_accesses         1575088                       # Number of floating point alu accesses
system.switch_cpus.iq.fp_inst_queue_reads      3131956                       # Number of floating instruction queue reads
system.switch_cpus.iq.fp_inst_queue_wakeup_accesses      1539594                       # Number of floating instruction queue wakeup accesses
system.switch_cpus.iq.fp_inst_queue_writes      1885346                       # Number of floating instruction queue writes
system.switch_cpus.iq.fu_busy_cnt              188210                       # FU busy when requested
system.switch_cpus.iq.fu_busy_rate           0.011216                       # FU busy rate (busy events/executed inst)
system.switch_cpus.iq.fu_full::No_OpClass            0      0.00%      0.00% # attempts to use FU when none available
system.switch_cpus.iq.fu_full::IntAlu          111783     59.39%     59.39% # attempts to use FU when none available
system.switch_cpus.iq.fu_full::IntMult              0      0.00%     59.39% # attempts to use FU when none available
system.switch_cpus.iq.fu_full::IntDiv               0      0.00%     59.39% # attempts to use FU when none available
system.switch_cpus.iq.fu_full::FloatAdd             0      0.00%     59.39% # attempts to use FU when none available
system.switch_cpus.iq.fu_full::FloatCmp             0      0.00%     59.39% # attempts to use FU when none available
system.switch_cpus.iq.fu_full::FloatCvt             0      0.00%     59.39% # attempts to use FU when none available
system.switch_cpus.iq.fu_full::FloatMult            0      0.00%     59.39% # attempts to use FU when none available
system.switch_cpus.iq.fu_full::FloatMultAcc            0      0.00%     59.39% # attempts to use FU when none available
system.switch_cpus.iq.fu_full::FloatDiv             0      0.00%     59.39% # attempts to use FU when none available
system.switch_cpus.iq.fu_full::FloatMisc            0      0.00%     59.39% # attempts to use FU when none available
system.switch_cpus.iq.fu_full::FloatSqrt            0      0.00%     59.39% # attempts to use FU when none available
system.switch_cpus.iq.fu_full::SimdAdd              0      0.00%     59.39% # attempts to use FU when none available
system.switch_cpus.iq.fu_full::SimdAddAcc            0      0.00%     59.39% # attempts to use FU when none available
system.switch_cpus.iq.fu_full::SimdAlu             88      0.05%     59.44% # attempts to use FU when none available
system.switch_cpus.iq.fu_full::SimdCmp              0      0.00%     59.44% # attempts to use FU when none available
system.switch_cpus.iq.fu_full::SimdCvt           3372      1.79%     61.23% # attempts to use FU when none available
system.switch_cpus.iq.fu_full::SimdMisc            23      0.01%     61.24% # attempts to use FU when none available
system.switch_cpus.iq.fu_full::SimdMult             0      0.00%     61.24% # attempts to use FU when none available
system.switch_cpus.iq.fu_full::SimdMultAcc            0      0.00%     61.24% # attempts to use FU when none available
system.switch_cpus.iq.fu_full::SimdShift            0      0.00%     61.24% # attempts to use FU when none available
system.switch_cpus.iq.fu_full::SimdShiftAcc            0      0.00%     61.24% # attempts to use FU when none available
system.switch_cpus.iq.fu_full::SimdDiv              0      0.00%     61.24% # attempts to use FU when none available
system.switch_cpus.iq.fu_full::SimdSqrt             0      0.00%     61.24% # attempts to use FU when none available
system.switch_cpus.iq.fu_full::SimdFloatAdd         1663      0.88%     62.13% # attempts to use FU when none available
system.switch_cpus.iq.fu_full::SimdFloatAlu            0      0.00%     62.13% # attempts to use FU when none available
system.switch_cpus.iq.fu_full::SimdFloatCmp            0      0.00%     62.13% # attempts to use FU when none available
system.switch_cpus.iq.fu_full::SimdFloatCvt         9801      5.21%     67.33% # attempts to use FU when none available
system.switch_cpus.iq.fu_full::SimdFloatDiv            0      0.00%     67.33% # attempts to use FU when none available
system.switch_cpus.iq.fu_full::SimdFloatMisc            0      0.00%     67.33% # attempts to use FU when none available
system.switch_cpus.iq.fu_full::SimdFloatMult            0      0.00%     67.33% # attempts to use FU when none available
system.switch_cpus.iq.fu_full::SimdFloatMultAcc            0      0.00%     67.33% # attempts to use FU when none available
system.switch_cpus.iq.fu_full::SimdFloatSqrt            0      0.00%     67.33% # attempts to use FU when none available
system.switch_cpus.iq.fu_full::SimdReduceAdd            0      0.00%     67.33% # attempts to use FU when none available
system.switch_cpus.iq.fu_full::SimdReduceAlu            0      0.00%     67.33% # attempts to use FU when none available
system.switch_cpus.iq.fu_full::SimdReduceCmp            0      0.00%     67.33% # attempts to use FU when none available
system.switch_cpus.iq.fu_full::SimdFloatReduceAdd            0      0.00%     67.33% # attempts to use FU when none available
system.switch_cpus.iq.fu_full::SimdFloatReduceCmp            0      0.00%     67.33% # attempts to use FU when none available
system.switch_cpus.iq.fu_full::SimdAes              0      0.00%     67.33% # attempts to use FU when none available
system.switch_cpus.iq.fu_full::SimdAesMix            0      0.00%     67.33% # attempts to use FU when none available
system.switch_cpus.iq.fu_full::SimdSha1Hash            0      0.00%     67.33% # attempts to use FU when none available
system.switch_cpus.iq.fu_full::SimdSha1Hash2            0      0.00%     67.33% # attempts to use FU when none available
system.switch_cpus.iq.fu_full::SimdSha256Hash            0      0.00%     67.33% # attempts to use FU when none available
system.switch_cpus.iq.fu_full::SimdSha256Hash2            0      0.00%     67.33% # attempts to use FU when none available
system.switch_cpus.iq.fu_full::SimdShaSigma2            0      0.00%     67.33% # attempts to use FU when none available
system.switch_cpus.iq.fu_full::SimdShaSigma3            0      0.00%     67.33% # attempts to use FU when none available
system.switch_cpus.iq.fu_full::SimdPredAlu            0      0.00%     67.33% # attempts to use FU when none available
system.switch_cpus.iq.fu_full::MemRead          56841     30.20%     97.54% # attempts to use FU when none available
system.switch_cpus.iq.fu_full::MemWrite           887      0.47%     98.01% # attempts to use FU when none available
system.switch_cpus.iq.fu_full::FloatMemRead         3752      1.99%    100.00% # attempts to use FU when none available
system.switch_cpus.iq.fu_full::FloatMemWrite            0      0.00%    100.00% # attempts to use FU when none available
system.switch_cpus.iq.fu_full::IprAccess            0      0.00%    100.00% # attempts to use FU when none available
system.switch_cpus.iq.fu_full::InstPrefetch            0      0.00%    100.00% # attempts to use FU when none available
system.switch_cpus.iq.int_alu_accesses       15294073                       # Number of integer alu accesses
system.switch_cpus.iq.int_inst_queue_reads     36085659                       # Number of integer instruction queue reads
system.switch_cpus.iq.int_inst_queue_wakeup_accesses     15190686                       # Number of integer instruction queue wakeup accesses
system.switch_cpus.iq.int_inst_queue_writes     16585829                       # Number of integer instruction queue writes
system.switch_cpus.iq.iqInstsAdded           17249654                       # Number of instructions added to the IQ (excludes non-spec)
system.switch_cpus.iq.iqInstsIssued          16780965                       # Number of instructions issued
system.switch_cpus.iq.iqNonSpecInstsAdded            9                       # Number of non-speculative instructions added to the IQ
system.switch_cpus.iq.iqSquashedInstsExamined      1221248                       # Number of squashed instructions iterated over during squash; mainly for profiling
system.switch_cpus.iq.iqSquashedInstsIssued        75723                       # Number of squashed instructions issued
system.switch_cpus.iq.iqSquashedNonSpecRemoved            9                       # Number of squashed non-spec instructions that were removed
system.switch_cpus.iq.iqSquashedOperandsExamined      1745874                       # Number of squashed operands that are examined and possibly removed from graph
system.switch_cpus.iq.issued_per_cycle::samples      5391753                       # Number of insts issued each cycle
system.switch_cpus.iq.issued_per_cycle::mean     3.112339                       # Number of insts issued each cycle
system.switch_cpus.iq.issued_per_cycle::stdev     2.293217                       # Number of insts issued each cycle
system.switch_cpus.iq.issued_per_cycle::underflows            0      0.00%      0.00% # Number of insts issued each cycle
system.switch_cpus.iq.issued_per_cycle::0       910538     16.89%     16.89% # Number of insts issued each cycle
system.switch_cpus.iq.issued_per_cycle::1       576010     10.68%     27.57% # Number of insts issued each cycle
system.switch_cpus.iq.issued_per_cycle::2       866656     16.07%     43.64% # Number of insts issued each cycle
system.switch_cpus.iq.issued_per_cycle::3       831224     15.42%     59.06% # Number of insts issued each cycle
system.switch_cpus.iq.issued_per_cycle::4       711988     13.21%     72.27% # Number of insts issued each cycle
system.switch_cpus.iq.issued_per_cycle::5       629267     11.67%     83.94% # Number of insts issued each cycle
system.switch_cpus.iq.issued_per_cycle::6       339987      6.31%     90.24% # Number of insts issued each cycle
system.switch_cpus.iq.issued_per_cycle::7       264902      4.91%     95.16% # Number of insts issued each cycle
system.switch_cpus.iq.issued_per_cycle::8       261181      4.84%    100.00% # Number of insts issued each cycle
system.switch_cpus.iq.issued_per_cycle::overflows            0      0.00%    100.00% # Number of insts issued each cycle
system.switch_cpus.iq.issued_per_cycle::min_value            0                       # Number of insts issued each cycle
system.switch_cpus.iq.issued_per_cycle::max_value            8                       # Number of insts issued each cycle
system.switch_cpus.iq.issued_per_cycle::total      5391753                       # Number of insts issued each cycle
system.switch_cpus.iq.rate                   3.106898                       # Inst issue rate
system.switch_cpus.iq.vec_alu_accesses              0                       # Number of vector alu accesses
system.switch_cpus.iq.vec_inst_queue_reads            0                       # Number of vector instruction queue reads
system.switch_cpus.iq.vec_inst_queue_wakeup_accesses            0                       # Number of vector instruction queue wakeup accesses
system.switch_cpus.iq.vec_inst_queue_writes            0                       # Number of vector instruction queue writes
system.switch_cpus.itb.rdAccesses                   0                       # TLB accesses on read requests
system.switch_cpus.itb.rdMisses                     0                       # TLB misses on read requests
system.switch_cpus.itb.wrAccesses              851375                       # TLB accesses on write requests
system.switch_cpus.itb.wrMisses                    43                       # TLB misses on write requests
system.switch_cpus.memDep0.conflictingLoads       361502                       # Number of conflicting loads.
system.switch_cpus.memDep0.conflictingStores       265980                       # Number of conflicting stores.
system.switch_cpus.memDep0.insertedLoads      3719785                       # Number of loads inserted to the mem dependence unit.
system.switch_cpus.memDep0.insertedStores      1427309                       # Number of stores inserted to the mem dependence unit.
system.switch_cpus.misc_regfile_reads         6723652                       # number of misc regfile reads
system.switch_cpus.misc_regfile_writes              1                       # number of misc regfile writes
system.switch_cpus.numCycles                  5401196                       # number of cpu cycles simulated
system.switch_cpus.numWorkItemsCompleted            0                       # number of work items this cpu completed
system.switch_cpus.numWorkItemsStarted              0                       # number of work items this cpu started
system.switch_cpus.rename.BlockCycles          258491                       # Number of cycles rename is blocking
system.switch_cpus.rename.CommittedMaps      20724563                       # Number of HB maps that are committed
system.switch_cpus.rename.IQFullEvents         127178                       # Number of times rename has blocked due to IQ full
system.switch_cpus.rename.IdleCycles           876555                       # Number of cycles rename is idle
system.switch_cpus.rename.LQFullEvents         459401                       # Number of times rename has blocked due to LQ full
system.switch_cpus.rename.ROBFullEvents          3478                       # Number of times rename has blocked due to ROB full
system.switch_cpus.rename.RenameLookups      54888213                       # Number of register rename lookups that rename has made
system.switch_cpus.rename.RenamedInsts       17479278                       # Number of instructions processed by rename
system.switch_cpus.rename.RenamedOperands     22452103                       # Number of destination operands rename has renamed
system.switch_cpus.rename.RunCycles           1994872                       # Number of cycles rename is running
system.switch_cpus.rename.SQFullEvents        1387530                       # Number of times rename has blocked due to SQ full
system.switch_cpus.rename.SquashCycles          20285                       # Number of cycles rename is squashing
system.switch_cpus.rename.UnblockCycles       2241544                       # Number of cycles rename is unblocking
system.switch_cpus.rename.UndoneMaps          1727459                       # Number of HB maps that are undone due to squashing
system.switch_cpus.rename.fp_rename_lookups      2998010                       # Number of floating rename lookups
system.switch_cpus.rename.int_rename_lookups     30021616                       # Number of integer rename lookups
system.switch_cpus.rename.serializeStallCycles            0                       # count of cycles rename stalled for serializing inst
system.switch_cpus.rename.serializingInsts            0                       # count of serializing insts renamed
system.switch_cpus.rename.skidInsts           4172572                       # count of insts added to the skid buffer
system.switch_cpus.rename.tempSerializingInsts            0                       # count of temporary serializing insts renamed
system.switch_cpus.rob.rob_reads             21194881                       # The number of ROB reads
system.switch_cpus.rob.rob_writes            34663763                       # The number of ROB writes
system.switch_cpus.timesIdled                     140                       # Number of times that the entire CPU went into an idle state and unscheduled itself
system.tol2bus.snoop_filter.hit_multi_requests            0                       # Number of requests hitting in the snoop filter with multiple (>1) holders of the requested data.
system.tol2bus.snoop_filter.hit_multi_snoops            0                       # Number of snoops hitting in the snoop filter with multiple (>1) holders of the requested data.
system.tol2bus.snoop_filter.hit_single_requests        24597                       # Number of requests hitting in the snoop filter with a single holder of the requested data.
system.tol2bus.snoop_filter.hit_single_snoops         2266                       # Number of snoops hitting in the snoop filter with a single holder of the requested data.
system.tol2bus.snoop_filter.tot_requests        50343                       # Total number of requests made to the snoop filter.
system.tol2bus.snoop_filter.tot_snoops           2266                       # Total number of snoops made to the snoop filter.
system.membus.pwrStateResidencyTicks::UNDEFINED 70892909884500                       # Cumulative time (in ticks) in various power states
system.membus.trans_dist::ReadResp               1094                       # Transaction distribution
system.membus.trans_dist::WritebackDirty         1703                       # Transaction distribution
system.membus.trans_dist::CleanEvict              507                       # Transaction distribution
system.membus.trans_dist::ReadExReq              3318                       # Transaction distribution
system.membus.trans_dist::ReadExResp             3318                       # Transaction distribution
system.membus.trans_dist::ReadSharedReq          1094                       # Transaction distribution
system.membus.pkt_count_system.l2.mem_side::system.mem_ctrls.port        11034                       # Packet count per connected master and slave (bytes)
system.membus.pkt_count_system.l2.mem_side::total        11034                       # Packet count per connected master and slave (bytes)
system.membus.pkt_count::total                  11034                       # Packet count per connected master and slave (bytes)
system.membus.pkt_size_system.l2.mem_side::system.mem_ctrls.port       391360                       # Cumulative packet size per connected master and slave (bytes)
system.membus.pkt_size_system.l2.mem_side::total       391360                       # Cumulative packet size per connected master and slave (bytes)
system.membus.pkt_size::total                  391360                       # Cumulative packet size per connected master and slave (bytes)
system.membus.snoops                                0                       # Total snoops (count)
system.membus.snoopTraffic                          0                       # Total snoop traffic (bytes)
system.membus.snoop_fanout::samples              4412                       # Request fanout histogram
system.membus.snoop_fanout::mean                    0                       # Request fanout histogram
system.membus.snoop_fanout::stdev                   0                       # Request fanout histogram
system.membus.snoop_fanout::underflows              0      0.00%      0.00% # Request fanout histogram
system.membus.snoop_fanout::0                    4412    100.00%    100.00% # Request fanout histogram
system.membus.snoop_fanout::1                       0      0.00%    100.00% # Request fanout histogram
system.membus.snoop_fanout::overflows               0      0.00%    100.00% # Request fanout histogram
system.membus.snoop_fanout::min_value               0                       # Request fanout histogram
system.membus.snoop_fanout::max_value               0                       # Request fanout histogram
system.membus.snoop_fanout::total                4412                       # Request fanout histogram
system.membus.reqLayer2.occupancy            14720000                       # Layer occupancy (ticks)
system.membus.reqLayer2.utilization               0.5                       # Layer utilization (%)
system.membus.respLayer1.occupancy           23468000                       # Layer occupancy (ticks)
system.membus.respLayer1.utilization              0.9                       # Layer utilization (%)
system.switch_cpus.pwrStateResidencyTicks::OFF   2700608250                       # Cumulative time (in ticks) in various power states
system.switch_cpus.dtb.walker.pwrStateResidencyTicks::UNDEFINED 70892909884500                       # Cumulative time (in ticks) in various power states
system.switch_cpus.itb.walker.pwrStateResidencyTicks::UNDEFINED 70892909884500                       # Cumulative time (in ticks) in various power states
system.tol2bus.pwrStateResidencyTicks::UNDEFINED 70892909884500                       # Cumulative time (in ticks) in various power states
system.tol2bus.trans_dist::ReadResp              5863                       # Transaction distribution
system.tol2bus.trans_dist::WritebackDirty        21270                       # Transaction distribution
system.tol2bus.trans_dist::WritebackClean          222                       # Transaction distribution
system.tol2bus.trans_dist::CleanEvict            7129                       # Transaction distribution
system.tol2bus.trans_dist::ReadExReq            19883                       # Transaction distribution
system.tol2bus.trans_dist::ReadExResp           19882                       # Transaction distribution
system.tol2bus.trans_dist::ReadCleanReq           346                       # Transaction distribution
system.tol2bus.trans_dist::ReadSharedReq         5517                       # Transaction distribution
system.tol2bus.pkt_count_system.cpu.icache.mem_side::system.l2.cpu_side          914                       # Packet count per connected master and slave (bytes)
system.tol2bus.pkt_count_system.cpu.dcache.mem_side::system.l2.cpu_side        75174                       # Packet count per connected master and slave (bytes)
system.tol2bus.pkt_count::total                 76088                       # Packet count per connected master and slave (bytes)
system.tol2bus.pkt_size_system.cpu.icache.mem_side::system.l2.cpu_side        36352                       # Cumulative packet size per connected master and slave (bytes)
system.tol2bus.pkt_size_system.cpu.dcache.mem_side::system.l2.cpu_side      2877824                       # Cumulative packet size per connected master and slave (bytes)
system.tol2bus.pkt_size::total                2914176                       # Cumulative packet size per connected master and slave (bytes)
system.tol2bus.snoops                            4024                       # Total snoops (count)
system.tol2bus.snoopTraffic                    108992                       # Total snoop traffic (bytes)
system.tol2bus.snoop_fanout::samples            29770                       # Request fanout histogram
system.tol2bus.snoop_fanout::mean            0.076117                       # Request fanout histogram
system.tol2bus.snoop_fanout::stdev           0.265190                       # Request fanout histogram
system.tol2bus.snoop_fanout::underflows             0      0.00%      0.00% # Request fanout histogram
system.tol2bus.snoop_fanout::0                  27504     92.39%     92.39% # Request fanout histogram
system.tol2bus.snoop_fanout::1                   2266      7.61%    100.00% # Request fanout histogram
system.tol2bus.snoop_fanout::2                      0      0.00%    100.00% # Request fanout histogram
system.tol2bus.snoop_fanout::3                      0      0.00%    100.00% # Request fanout histogram
system.tol2bus.snoop_fanout::4                      0      0.00%    100.00% # Request fanout histogram
system.tol2bus.snoop_fanout::overflows              0      0.00%    100.00% # Request fanout histogram
system.tol2bus.snoop_fanout::min_value              0                       # Request fanout histogram
system.tol2bus.snoop_fanout::max_value              1                       # Request fanout histogram
system.tol2bus.snoop_fanout::total              29770                       # Request fanout histogram
system.tol2bus.reqLayer0.occupancy           44956500                       # Layer occupancy (ticks)
system.tol2bus.reqLayer0.utilization              1.7                       # Layer utilization (%)
system.tol2bus.respLayer1.occupancy          38089500                       # Layer occupancy (ticks)
system.tol2bus.respLayer1.utilization             1.4                       # Layer utilization (%)
system.tol2bus.respLayer0.occupancy            516000                       # Layer occupancy (ticks)
system.tol2bus.respLayer0.utilization             0.0                       # Layer utilization (%)
system.voltage_domain.voltage                       1                       # Voltage in Volts
system.clk_domain.clock                          1000                       # Clock period in ticks
system.l2.pwrStateResidencyTicks::UNDEFINED 70892909884500                       # Cumulative time (in ticks) in various power states
system.l2.demand_hits::.switch_cpus.inst          213                       # number of demand (read+write) hits
system.l2.demand_hits::.switch_cpus.data        21121                       # number of demand (read+write) hits
system.l2.demand_hits::total                    21334                       # number of demand (read+write) hits
system.l2.overall_hits::.switch_cpus.inst          213                       # number of overall hits
system.l2.overall_hits::.switch_cpus.data        21121                       # number of overall hits
system.l2.overall_hits::total                   21334                       # number of overall hits
system.l2.demand_misses::.cpu.inst                  2                       # number of demand (read+write) misses
system.l2.demand_misses::.cpu.data                  6                       # number of demand (read+write) misses
system.l2.demand_misses::.switch_cpus.inst          131                       # number of demand (read+write) misses
system.l2.demand_misses::.switch_cpus.data         4273                       # number of demand (read+write) misses
system.l2.demand_misses::total                   4412                       # number of demand (read+write) misses
system.l2.overall_misses::.cpu.inst                 2                       # number of overall misses
system.l2.overall_misses::.cpu.data                 6                       # number of overall misses
system.l2.overall_misses::.switch_cpus.inst          131                       # number of overall misses
system.l2.overall_misses::.switch_cpus.data         4273                       # number of overall misses
system.l2.overall_misses::total                  4412                       # number of overall misses
system.l2.demand_miss_latency::.switch_cpus.inst     10293500                       # number of demand (read+write) miss cycles
system.l2.demand_miss_latency::.switch_cpus.data    338626000                       # number of demand (read+write) miss cycles
system.l2.demand_miss_latency::total        348919500                       # number of demand (read+write) miss cycles
system.l2.overall_miss_latency::.switch_cpus.inst     10293500                       # number of overall miss cycles
system.l2.overall_miss_latency::.switch_cpus.data    338626000                       # number of overall miss cycles
system.l2.overall_miss_latency::total       348919500                       # number of overall miss cycles
system.l2.demand_accesses::.cpu.inst                2                       # number of demand (read+write) accesses
system.l2.demand_accesses::.cpu.data                6                       # number of demand (read+write) accesses
system.l2.demand_accesses::.switch_cpus.inst          344                       # number of demand (read+write) accesses
system.l2.demand_accesses::.switch_cpus.data        25394                       # number of demand (read+write) accesses
system.l2.demand_accesses::total                25746                       # number of demand (read+write) accesses
system.l2.overall_accesses::.cpu.inst               2                       # number of overall (read+write) accesses
system.l2.overall_accesses::.cpu.data               6                       # number of overall (read+write) accesses
system.l2.overall_accesses::.switch_cpus.inst          344                       # number of overall (read+write) accesses
system.l2.overall_accesses::.switch_cpus.data        25394                       # number of overall (read+write) accesses
system.l2.overall_accesses::total               25746                       # number of overall (read+write) accesses
system.l2.demand_miss_rate::.cpu.inst               1                       # miss rate for demand accesses
system.l2.demand_miss_rate::.cpu.data               1                       # miss rate for demand accesses
system.l2.demand_miss_rate::.switch_cpus.inst     0.380814                       # miss rate for demand accesses
system.l2.demand_miss_rate::.switch_cpus.data     0.168268                       # miss rate for demand accesses
system.l2.demand_miss_rate::total            0.171366                       # miss rate for demand accesses
system.l2.overall_miss_rate::.cpu.inst              1                       # miss rate for overall accesses
system.l2.overall_miss_rate::.cpu.data              1                       # miss rate for overall accesses
system.l2.overall_miss_rate::.switch_cpus.inst     0.380814                       # miss rate for overall accesses
system.l2.overall_miss_rate::.switch_cpus.data     0.168268                       # miss rate for overall accesses
system.l2.overall_miss_rate::total           0.171366                       # miss rate for overall accesses
system.l2.demand_avg_miss_latency::.switch_cpus.inst 78576.335878                       # average overall miss latency
system.l2.demand_avg_miss_latency::.switch_cpus.data 79247.835245                       # average overall miss latency
system.l2.demand_avg_miss_latency::total 79084.202176                       # average overall miss latency
system.l2.overall_avg_miss_latency::.switch_cpus.inst 78576.335878                       # average overall miss latency
system.l2.overall_avg_miss_latency::.switch_cpus.data 79247.835245                       # average overall miss latency
system.l2.overall_avg_miss_latency::total 79084.202176                       # average overall miss latency
system.l2.blocked_cycles::no_mshrs                  0                       # number of cycles access was blocked
system.l2.blocked_cycles::no_targets                0                       # number of cycles access was blocked
system.l2.blocked::no_mshrs                         0                       # number of cycles access was blocked
system.l2.blocked::no_targets                       0                       # number of cycles access was blocked
system.l2.avg_blocked_cycles::no_mshrs            nan                       # average number of cycles each access was blocked
system.l2.avg_blocked_cycles::no_targets          nan                       # average number of cycles each access was blocked
system.l2.writebacks::.writebacks                1703                       # number of writebacks
system.l2.writebacks::total                      1703                       # number of writebacks
system.l2.demand_mshr_misses::.switch_cpus.inst          131                       # number of demand (read+write) MSHR misses
system.l2.demand_mshr_misses::.switch_cpus.data         4273                       # number of demand (read+write) MSHR misses
system.l2.demand_mshr_misses::total              4404                       # number of demand (read+write) MSHR misses
system.l2.overall_mshr_misses::.switch_cpus.inst          131                       # number of overall MSHR misses
system.l2.overall_mshr_misses::.switch_cpus.data         4273                       # number of overall MSHR misses
system.l2.overall_mshr_misses::total             4404                       # number of overall MSHR misses
system.l2.demand_mshr_miss_latency::.switch_cpus.inst      8983500                       # number of demand (read+write) MSHR miss cycles
system.l2.demand_mshr_miss_latency::.switch_cpus.data    295896000                       # number of demand (read+write) MSHR miss cycles
system.l2.demand_mshr_miss_latency::total    304879500                       # number of demand (read+write) MSHR miss cycles
system.l2.overall_mshr_miss_latency::.switch_cpus.inst      8983500                       # number of overall MSHR miss cycles
system.l2.overall_mshr_miss_latency::.switch_cpus.data    295896000                       # number of overall MSHR miss cycles
system.l2.overall_mshr_miss_latency::total    304879500                       # number of overall MSHR miss cycles
system.l2.demand_mshr_miss_rate::.switch_cpus.inst     0.380814                       # mshr miss rate for demand accesses
system.l2.demand_mshr_miss_rate::.switch_cpus.data     0.168268                       # mshr miss rate for demand accesses
system.l2.demand_mshr_miss_rate::total       0.171056                       # mshr miss rate for demand accesses
system.l2.overall_mshr_miss_rate::.switch_cpus.inst     0.380814                       # mshr miss rate for overall accesses
system.l2.overall_mshr_miss_rate::.switch_cpus.data     0.168268                       # mshr miss rate for overall accesses
system.l2.overall_mshr_miss_rate::total      0.171056                       # mshr miss rate for overall accesses
system.l2.demand_avg_mshr_miss_latency::.switch_cpus.inst 68576.335878                       # average overall mshr miss latency
system.l2.demand_avg_mshr_miss_latency::.switch_cpus.data 69247.835245                       # average overall mshr miss latency
system.l2.demand_avg_mshr_miss_latency::total 69227.861035                       # average overall mshr miss latency
system.l2.overall_avg_mshr_miss_latency::.switch_cpus.inst 68576.335878                       # average overall mshr miss latency
system.l2.overall_avg_mshr_miss_latency::.switch_cpus.data 69247.835245                       # average overall mshr miss latency
system.l2.overall_avg_mshr_miss_latency::total 69227.861035                       # average overall mshr miss latency
system.l2.replacements                           4024                       # number of replacements
system.l2.WritebackDirty_hits::.writebacks        19567                       # number of WritebackDirty hits
system.l2.WritebackDirty_hits::total            19567                       # number of WritebackDirty hits
system.l2.WritebackDirty_accesses::.writebacks        19567                       # number of WritebackDirty accesses(hits+misses)
system.l2.WritebackDirty_accesses::total        19567                       # number of WritebackDirty accesses(hits+misses)
system.l2.WritebackClean_hits::.writebacks          222                       # number of WritebackClean hits
system.l2.WritebackClean_hits::total              222                       # number of WritebackClean hits
system.l2.WritebackClean_accesses::.writebacks          222                       # number of WritebackClean accesses(hits+misses)
system.l2.WritebackClean_accesses::total          222                       # number of WritebackClean accesses(hits+misses)
system.l2.CleanEvict_mshr_misses::.writebacks          452                       # number of CleanEvict MSHR misses
system.l2.CleanEvict_mshr_misses::total           452                       # number of CleanEvict MSHR misses
system.l2.CleanEvict_mshr_miss_rate::.writebacks          inf                       # mshr miss rate for CleanEvict accesses
system.l2.CleanEvict_mshr_miss_rate::total          inf                       # mshr miss rate for CleanEvict accesses
system.l2.ReadExReq_hits::.switch_cpus.data        16565                       # number of ReadExReq hits
system.l2.ReadExReq_hits::total                 16565                       # number of ReadExReq hits
system.l2.ReadExReq_misses::.cpu.data               2                       # number of ReadExReq misses
system.l2.ReadExReq_misses::.switch_cpus.data         3316                       # number of ReadExReq misses
system.l2.ReadExReq_misses::total                3318                       # number of ReadExReq misses
system.l2.ReadExReq_miss_latency::.switch_cpus.data    256979000                       # number of ReadExReq miss cycles
system.l2.ReadExReq_miss_latency::total     256979000                       # number of ReadExReq miss cycles
system.l2.ReadExReq_accesses::.cpu.data             2                       # number of ReadExReq accesses(hits+misses)
system.l2.ReadExReq_accesses::.switch_cpus.data        19881                       # number of ReadExReq accesses(hits+misses)
system.l2.ReadExReq_accesses::total             19883                       # number of ReadExReq accesses(hits+misses)
system.l2.ReadExReq_miss_rate::.cpu.data            1                       # miss rate for ReadExReq accesses
system.l2.ReadExReq_miss_rate::.switch_cpus.data     0.166792                       # miss rate for ReadExReq accesses
system.l2.ReadExReq_miss_rate::total         0.166876                       # miss rate for ReadExReq accesses
system.l2.ReadExReq_avg_miss_latency::.switch_cpus.data 77496.682750                       # average ReadExReq miss latency
system.l2.ReadExReq_avg_miss_latency::total 77449.969861                       # average ReadExReq miss latency
system.l2.ReadExReq_mshr_misses::.switch_cpus.data         3316                       # number of ReadExReq MSHR misses
system.l2.ReadExReq_mshr_misses::total           3316                       # number of ReadExReq MSHR misses
system.l2.ReadExReq_mshr_miss_latency::.switch_cpus.data    223819000                       # number of ReadExReq MSHR miss cycles
system.l2.ReadExReq_mshr_miss_latency::total    223819000                       # number of ReadExReq MSHR miss cycles
system.l2.ReadExReq_mshr_miss_rate::.switch_cpus.data     0.166792                       # mshr miss rate for ReadExReq accesses
system.l2.ReadExReq_mshr_miss_rate::total     0.166776                       # mshr miss rate for ReadExReq accesses
system.l2.ReadExReq_avg_mshr_miss_latency::.switch_cpus.data 67496.682750                       # average ReadExReq mshr miss latency
system.l2.ReadExReq_avg_mshr_miss_latency::total 67496.682750                       # average ReadExReq mshr miss latency
system.l2.ReadCleanReq_hits::.switch_cpus.inst          213                       # number of ReadCleanReq hits
system.l2.ReadCleanReq_hits::total                213                       # number of ReadCleanReq hits
system.l2.ReadCleanReq_misses::.cpu.inst            2                       # number of ReadCleanReq misses
system.l2.ReadCleanReq_misses::.switch_cpus.inst          131                       # number of ReadCleanReq misses
system.l2.ReadCleanReq_misses::total              133                       # number of ReadCleanReq misses
system.l2.ReadCleanReq_miss_latency::.switch_cpus.inst     10293500                       # number of ReadCleanReq miss cycles
system.l2.ReadCleanReq_miss_latency::total     10293500                       # number of ReadCleanReq miss cycles
system.l2.ReadCleanReq_accesses::.cpu.inst            2                       # number of ReadCleanReq accesses(hits+misses)
system.l2.ReadCleanReq_accesses::.switch_cpus.inst          344                       # number of ReadCleanReq accesses(hits+misses)
system.l2.ReadCleanReq_accesses::total            346                       # number of ReadCleanReq accesses(hits+misses)
system.l2.ReadCleanReq_miss_rate::.cpu.inst            1                       # miss rate for ReadCleanReq accesses
system.l2.ReadCleanReq_miss_rate::.switch_cpus.inst     0.380814                       # miss rate for ReadCleanReq accesses
[...]
system.cpu.dtb_walker_cache.pwrStateResidencyTicks::UNDEFINED 70901264577500                       # Cumulative time (in ticks) in various power states
system.cpu.dtb_walker_cache.blocked_cycles::no_mshrs            0                       # number of cycles access was blocked
system.cpu.dtb_walker_cache.blocked_cycles::no_targets            0                       # number of cycles access was blocked
system.cpu.dtb_walker_cache.blocked::no_mshrs            0                       # number of cycles access was blocked
system.cpu.dtb_walker_cache.blocked::no_targets            0                       # number of cycles access was blocked
system.cpu.dtb_walker_cache.avg_blocked_cycles::no_mshrs          nan                       # average number of cycles each access was blocked
system.cpu.dtb_walker_cache.avg_blocked_cycles::no_targets          nan                       # average number of cycles each access was blocked
system.cpu.dtb_walker_cache.replacements            0                       # number of replacements
system.cpu.dtb_walker_cache.tags.pwrStateResidencyTicks::UNDEFINED 70901264577500                       # Cumulative time (in ticks) in various power states
system.cpu.dtb_walker_cache.tags.tagsinuse            0                       # Cycle average of tags in use
system.cpu.dtb_walker_cache.tags.total_refs            0                       # Total number of references to valid blocks.
system.cpu.dtb_walker_cache.tags.sampled_refs            0                       # Sample count of references to valid blocks.
system.cpu.dtb_walker_cache.tags.avg_refs          nan                       # Average number of references to valid blocks.
system.cpu.dtb_walker_cache.tags.warmup_cycle            0                       # Cycle when the warmup percentage was hit.
system.cpu.dtb_walker_cache.tags.tag_accesses            0                       # Number of tag accesses
system.cpu.dtb_walker_cache.tags.data_accesses            0                       # Number of data accesses
system.cpu.dcache.pwrStateResidencyTicks::UNDEFINED 70901264577500                       # Cumulative time (in ticks) in various power states
system.cpu.dcache.demand_hits::.cpu.data            1                       # number of demand (read+write) hits
system.cpu.dcache.demand_hits::.switch_cpus.data     18899681                       # number of demand (read+write) hits
system.cpu.dcache.demand_hits::total         18899682                       # number of demand (read+write) hits
system.cpu.dcache.overall_hits::.cpu.data            1                       # number of overall hits
system.cpu.dcache.overall_hits::.switch_cpus.data     18946924                       # number of overall hits
system.cpu.dcache.overall_hits::total        18946925                       # number of overall hits
system.cpu.dcache.demand_misses::.cpu.data            6                       # number of demand (read+write) misses
system.cpu.dcache.demand_misses::.switch_cpus.data       106687                       # number of demand (read+write) misses
system.cpu.dcache.demand_misses::total         106693                       # number of demand (read+write) misses
system.cpu.dcache.overall_misses::.cpu.data            6                       # number of overall misses
system.cpu.dcache.overall_misses::.switch_cpus.data       110828                       # number of overall misses
system.cpu.dcache.overall_misses::total        110834                       # number of overall misses
system.cpu.dcache.demand_miss_latency::.switch_cpus.data   2624287492                       # number of demand (read+write) miss cycles
system.cpu.dcache.demand_miss_latency::total   2624287492                       # number of demand (read+write) miss cycles
system.cpu.dcache.overall_miss_latency::.switch_cpus.data   2624287492                       # number of overall miss cycles
system.cpu.dcache.overall_miss_latency::total   2624287492                       # number of overall miss cycles
system.cpu.dcache.demand_accesses::.cpu.data            7                       # number of demand (read+write) accesses
system.cpu.dcache.demand_accesses::.switch_cpus.data     19006368                       # number of demand (read+write) accesses
system.cpu.dcache.demand_accesses::total     19006375                       # number of demand (read+write) accesses
system.cpu.dcache.overall_accesses::.cpu.data            7                       # number of overall (read+write) accesses
system.cpu.dcache.overall_accesses::.switch_cpus.data     19057752                       # number of overall (read+write) accesses
system.cpu.dcache.overall_accesses::total     19057759                       # number of overall (read+write) accesses
system.cpu.dcache.demand_miss_rate::.cpu.data     0.857143                       # miss rate for demand accesses
system.cpu.dcache.demand_miss_rate::.switch_cpus.data     0.005613                       # miss rate for demand accesses
system.cpu.dcache.demand_miss_rate::total     0.005614                       # miss rate for demand accesses
system.cpu.dcache.overall_miss_rate::.cpu.data     0.857143                       # miss rate for overall accesses
system.cpu.dcache.overall_miss_rate::.switch_cpus.data     0.005815                       # miss rate for overall accesses
system.cpu.dcache.overall_miss_rate::total     0.005816                       # miss rate for overall accesses
system.cpu.dcache.demand_avg_miss_latency::.switch_cpus.data 24598.006243                       # average overall miss latency
system.cpu.dcache.demand_avg_miss_latency::total 24596.622946                       # average overall miss latency
system.cpu.dcache.overall_avg_miss_latency::.switch_cpus.data 23678.921320                       # average overall miss latency
system.cpu.dcache.overall_avg_miss_latency::total 23677.639461                       # average overall miss latency
system.cpu.dcache.blocked_cycles::no_mshrs        11225                       # number of cycles access was blocked
system.cpu.dcache.blocked_cycles::no_targets          355                       # number of cycles access was blocked
system.cpu.dcache.blocked::no_mshrs               917                       # number of cycles access was blocked
system.cpu.dcache.blocked::no_targets               2                       # number of cycles access was blocked
system.cpu.dcache.avg_blocked_cycles::no_mshrs    12.241003                       # average number of cycles each access was blocked
system.cpu.dcache.avg_blocked_cycles::no_targets   177.500000                       # average number of cycles each access was blocked
system.cpu.dcache.writebacks::.writebacks        83884                       # number of writebacks
system.cpu.dcache.writebacks::total             83884                       # number of writebacks
system.cpu.dcache.demand_mshr_hits::.switch_cpus.data         3694                       # number of demand (read+write) MSHR hits
system.cpu.dcache.demand_mshr_hits::total         3694                       # number of demand (read+write) MSHR hits
system.cpu.dcache.overall_mshr_hits::.switch_cpus.data         3694                       # number of overall MSHR hits
system.cpu.dcache.overall_mshr_hits::total         3694                       # number of overall MSHR hits
system.cpu.dcache.demand_mshr_misses::.switch_cpus.data       102993                       # number of demand (read+write) MSHR misses
system.cpu.dcache.demand_mshr_misses::total       102993                       # number of demand (read+write) MSHR misses
system.cpu.dcache.overall_mshr_misses::.switch_cpus.data       105063                       # number of overall MSHR misses
system.cpu.dcache.overall_mshr_misses::total       105063                       # number of overall MSHR misses
system.cpu.dcache.demand_mshr_miss_latency::.switch_cpus.data   2436971492                       # number of demand (read+write) MSHR miss cycles
system.cpu.dcache.demand_mshr_miss_latency::total   2436971492                       # number of demand (read+write) MSHR miss cycles
system.cpu.dcache.overall_mshr_miss_latency::.switch_cpus.data   2526718492                       # number of overall MSHR miss cycles
system.cpu.dcache.overall_mshr_miss_latency::total   2526718492                       # number of overall MSHR miss cycles
system.cpu.dcache.demand_mshr_miss_rate::.switch_cpus.data     0.005419                       # mshr miss rate for demand accesses
system.cpu.dcache.demand_mshr_miss_rate::total     0.005419                       # mshr miss rate for demand accesses
system.cpu.dcache.overall_mshr_miss_rate::.switch_cpus.data     0.005513                       # mshr miss rate for overall accesses
system.cpu.dcache.overall_mshr_miss_rate::total     0.005513                       # mshr miss rate for overall accesses
system.cpu.dcache.demand_avg_mshr_miss_latency::.switch_cpus.data 23661.525463                       # average overall mshr miss latency
system.cpu.dcache.demand_avg_mshr_miss_latency::total 23661.525463                       # average overall mshr miss latency
system.cpu.dcache.overall_avg_mshr_miss_latency::.switch_cpus.data 24049.555905                       # average overall mshr miss latency
system.cpu.dcache.overall_avg_mshr_miss_latency::total 24049.555905                       # average overall mshr miss latency
system.cpu.dcache.replacements                 104045                       # number of replacements
system.cpu.dcache.ReadReq_hits::.cpu.data            1                       # number of ReadReq hits
system.cpu.dcache.ReadReq_hits::.switch_cpus.data     13367866                       # number of ReadReq hits
system.cpu.dcache.ReadReq_hits::total        13367867                       # number of ReadReq hits
system.cpu.dcache.ReadReq_misses::.cpu.data            4                       # number of ReadReq misses
system.cpu.dcache.ReadReq_misses::.switch_cpus.data        25362                       # number of ReadReq misses
system.cpu.dcache.ReadReq_misses::total         25366                       # number of ReadReq misses
system.cpu.dcache.ReadReq_miss_latency::.switch_cpus.data    661447500                       # number of ReadReq miss cycles
system.cpu.dcache.ReadReq_miss_latency::total    661447500                       # number of ReadReq miss cycles
system.cpu.dcache.ReadReq_accesses::.cpu.data            5                       # number of ReadReq accesses(hits+misses)
system.cpu.dcache.ReadReq_accesses::.switch_cpus.data     13393228                       # number of ReadReq accesses(hits+misses)
system.cpu.dcache.ReadReq_accesses::total     13393233                       # number of ReadReq accesses(hits+misses)
system.cpu.dcache.ReadReq_miss_rate::.cpu.data     0.800000                       # miss rate for ReadReq accesses
system.cpu.dcache.ReadReq_miss_rate::.switch_cpus.data     0.001894                       # miss rate for ReadReq accesses
system.cpu.dcache.ReadReq_miss_rate::total     0.001894                       # miss rate for ReadReq accesses
system.cpu.dcache.ReadReq_avg_miss_latency::.switch_cpus.data 26080.257866                       # average ReadReq miss latency
system.cpu.dcache.ReadReq_avg_miss_latency::total 26076.145234                       # average ReadReq miss latency
system.cpu.dcache.ReadReq_mshr_hits::.switch_cpus.data         3672                       # number of ReadReq MSHR hits
system.cpu.dcache.ReadReq_mshr_hits::total         3672                       # number of ReadReq MSHR hits
system.cpu.dcache.ReadReq_mshr_misses::.switch_cpus.data        21690                       # number of ReadReq MSHR misses
system.cpu.dcache.ReadReq_mshr_misses::total        21690                       # number of ReadReq MSHR misses
system.cpu.dcache.ReadReq_mshr_miss_latency::.switch_cpus.data    555860000                       # number of ReadReq MSHR miss cycles
system.cpu.dcache.ReadReq_mshr_miss_latency::total    555860000                       # number of ReadReq MSHR miss cycles
system.cpu.dcache.ReadReq_mshr_miss_rate::.switch_cpus.data     0.001619                       # mshr miss rate for ReadReq accesses
system.cpu.dcache.ReadReq_mshr_miss_rate::total     0.001619                       # mshr miss rate for ReadReq accesses
system.cpu.dcache.ReadReq_avg_mshr_miss_latency::.switch_cpus.data 25627.478101                       # average ReadReq mshr miss latency
system.cpu.dcache.ReadReq_avg_mshr_miss_latency::total 25627.478101                       # average ReadReq mshr miss latency
system.cpu.dcache.WriteReq_hits::.switch_cpus.data      5531815                       # number of WriteReq hits
system.cpu.dcache.WriteReq_hits::total        5531815                       # number of WriteReq hits
system.cpu.dcache.WriteReq_misses::.cpu.data            2                       # number of WriteReq misses
system.cpu.dcache.WriteReq_misses::.switch_cpus.data        81325                       # number of WriteReq misses
system.cpu.dcache.WriteReq_misses::total        81327                       # number of WriteReq misses
system.cpu.dcache.WriteReq_miss_latency::.switch_cpus.data   1962839992                       # number of WriteReq miss cycles
system.cpu.dcache.WriteReq_miss_latency::total   1962839992                       # number of WriteReq miss cycles
system.cpu.dcache.WriteReq_accesses::.cpu.data            2                       # number of WriteReq accesses(hits+misses)
system.cpu.dcache.WriteReq_accesses::.switch_cpus.data      5613140                       # number of WriteReq accesses(hits+misses)
system.cpu.dcache.WriteReq_accesses::total      5613142                       # number of WriteReq accesses(hits+misses)
system.cpu.dcache.WriteReq_miss_rate::.cpu.data            1                       # miss rate for WriteReq accesses
system.cpu.dcache.WriteReq_miss_rate::.switch_cpus.data     0.014488                       # miss rate for WriteReq accesses
system.cpu.dcache.WriteReq_miss_rate::total     0.014489                       # miss rate for WriteReq accesses
system.cpu.dcache.WriteReq_avg_miss_latency::.switch_cpus.data 24135.751516                       # average WriteReq miss latency
system.cpu.dcache.WriteReq_avg_miss_latency::total 24135.157967                       # average WriteReq miss latency
system.cpu.dcache.WriteReq_mshr_hits::.switch_cpus.data           22                       # number of WriteReq MSHR hits
system.cpu.dcache.WriteReq_mshr_hits::total           22                       # number of WriteReq MSHR hits
system.cpu.dcache.WriteReq_mshr_misses::.switch_cpus.data        81303                       # number of WriteReq MSHR misses
system.cpu.dcache.WriteReq_mshr_misses::total        81303                       # number of WriteReq MSHR misses
system.cpu.dcache.WriteReq_mshr_miss_latency::.switch_cpus.data   1881111492                       # number of WriteReq MSHR miss cycles
system.cpu.dcache.WriteReq_mshr_miss_latency::total   1881111492                       # number of WriteReq MSHR miss cycles
system.cpu.dcache.WriteReq_mshr_miss_rate::.switch_cpus.data     0.014484                       # mshr miss rate for WriteReq accesses
system.cpu.dcache.WriteReq_mshr_miss_rate::total     0.014484                       # mshr miss rate for WriteReq accesses
system.cpu.dcache.WriteReq_avg_mshr_miss_latency::.switch_cpus.data 23137.048965                       # average WriteReq mshr miss latency
system.cpu.dcache.WriteReq_avg_mshr_miss_latency::total 23137.048965                       # average WriteReq mshr miss latency
system.cpu.dcache.SoftPFReq_hits::.switch_cpus.data        47243                       # number of SoftPFReq hits
system.cpu.dcache.SoftPFReq_hits::total         47243                       # number of SoftPFReq hits
system.cpu.dcache.SoftPFReq_misses::.switch_cpus.data         4141                       # number of SoftPFReq misses
system.cpu.dcache.SoftPFReq_misses::total         4141                       # number of SoftPFReq misses
system.cpu.dcache.SoftPFReq_accesses::.switch_cpus.data        51384                       # number of SoftPFReq accesses(hits+misses)
system.cpu.dcache.SoftPFReq_accesses::total        51384                       # number of SoftPFReq accesses(hits+misses)
system.cpu.dcache.SoftPFReq_miss_rate::.switch_cpus.data     0.080589                       # miss rate for SoftPFReq accesses
system.cpu.dcache.SoftPFReq_miss_rate::total     0.080589                       # miss rate for SoftPFReq accesses
system.cpu.dcache.SoftPFReq_mshr_misses::.switch_cpus.data         2070                       # number of SoftPFReq MSHR misses
system.cpu.dcache.SoftPFReq_mshr_misses::total         2070                       # number of SoftPFReq MSHR misses
system.cpu.dcache.SoftPFReq_mshr_miss_latency::.switch_cpus.data     89747000                       # number of SoftPFReq MSHR miss cycles
system.cpu.dcache.SoftPFReq_mshr_miss_latency::total     89747000                       # number of SoftPFReq MSHR miss cycles
system.cpu.dcache.SoftPFReq_mshr_miss_rate::.switch_cpus.data     0.040285                       # mshr miss rate for SoftPFReq accesses
system.cpu.dcache.SoftPFReq_mshr_miss_rate::total     0.040285                       # mshr miss rate for SoftPFReq accesses
system.cpu.dcache.SoftPFReq_avg_mshr_miss_latency::.switch_cpus.data 43356.038647                       # average SoftPFReq mshr miss latency
system.cpu.dcache.SoftPFReq_avg_mshr_miss_latency::total 43356.038647                       # average SoftPFReq mshr miss latency
system.cpu.dcache.tags.pwrStateResidencyTicks::UNDEFINED 70901264577500                       # Cumulative time (in ticks) in various power states
system.cpu.dcache.tags.tagsinuse             0.158482                       # Cycle average of tags in use
system.cpu.dcache.tags.total_refs            19051994                       # Total number of references to valid blocks.
system.cpu.dcache.tags.sampled_refs            105069                       # Sample count of references to valid blocks.
system.cpu.dcache.tags.avg_refs            181.328403                       # Average number of references to valid blocks.
system.cpu.dcache.tags.warmup_cycle      70890209278500                       # Cycle when the warmup percentage was hit.
system.cpu.dcache.tags.occ_blocks::.cpu.data     0.000406                       # Average occupied blocks per requestor
system.cpu.dcache.tags.occ_blocks::.switch_cpus.data     0.158076                       # Average occupied blocks per requestor
system.cpu.dcache.tags.occ_percent::.cpu.data     0.000000                       # Average percentage of cache occupancy
system.cpu.dcache.tags.occ_percent::.switch_cpus.data     0.000154                       # Average percentage of cache occupancy
system.cpu.dcache.tags.occ_percent::total     0.000155                       # Average percentage of cache occupancy
system.cpu.dcache.tags.occ_task_id_blocks::1024         1024                       # Occupied blocks per task id
system.cpu.dcache.tags.age_task_id_blocks_1024::0            8                       # Occupied blocks per task id
system.cpu.dcache.tags.age_task_id_blocks_1024::1          506                       # Occupied blocks per task id
system.cpu.dcache.tags.age_task_id_blocks_1024::2          470                       # Occupied blocks per task id
system.cpu.dcache.tags.age_task_id_blocks_1024::3           40                       # Occupied blocks per task id
system.cpu.dcache.tags.occ_task_id_percent::1024            1                       # Percentage of cache occupancy per task id
system.cpu.dcache.tags.tag_accesses          38220587                       # Number of tag accesses
system.cpu.dcache.tags.data_accesses         38220587                       # Number of data accesses

---------- End Simulation Statistics   ----------
