
---------- Begin Simulation Statistics ----------
final_tick                               164630004343000                       # Number of ticks from beginning of simulation (restored from checkpoints and never reset)
host_inst_rate                                  31830                       # Simulator instruction rate (inst/s)
host_mem_usage                                 828132                       # Number of bytes of host memory used
host_op_rate                                    54875                       # Simulator op (including micro ops) rate (op/s)
host_seconds                                   314.17                       # Real time elapsed on the host
host_tick_rate                               80776609                       # Simulator tick rate (ticks/s)
sim_freq                                 1000000000000                       # Frequency of simulated ticks
sim_insts                                    10000015                       # Number of instructions simulated
sim_ops                                      17240059                       # Number of ops (including micro ops) simulated
sim_seconds                                  0.025378                       # Number of seconds simulated
sim_ticks                                 25377699250                       # Number of ticks simulated
system.cpu.Branches                                 3                       # Number of branches fetched
system.cpu.committedInsts                          11                       # Number of instructions committed
system.cpu.committedOps                            21                       # Number of ops (including micro ops) committed
system.cpu.dtb.rdAccesses                           5                       # TLB accesses on read requests
system.cpu.dtb.rdMisses                             0                       # TLB misses on read requests
system.cpu.dtb.wrAccesses                           2                       # TLB accesses on write requests
system.cpu.dtb.wrMisses                             0                       # TLB misses on write requests
system.cpu.idle_fraction                            0                       # Percentage of idle cycles
system.cpu.itb.rdAccesses                           0                       # TLB accesses on read requests
system.cpu.itb.rdMisses                             0                       # TLB misses on read requests
system.cpu.itb.wrAccesses                          11                       # TLB accesses on write requests
system.cpu.itb.wrMisses                             0                       # TLB misses on write requests
system.cpu.not_idle_fraction                        1                       # Percentage of non-idle cycles
system.cpu.numCycles                               21                       # number of cpu cycles simulated
system.cpu.numWorkItemsCompleted                    0                       # number of work items this cpu completed
system.cpu.numWorkItemsStarted                      0                       # number of work items this cpu started
system.cpu.num_busy_cycles                         21                       # Number of busy cycles
system.cpu.num_cc_register_reads                   15                       # number of times the CC registers were read
system.cpu.num_cc_register_writes                  10                       # number of times the CC registers were written
system.cpu.num_conditional_control_insts            3                       # number of instructions that are conditional controls
system.cpu.num_fp_alu_accesses                      0                       # Number of float alu accesses
system.cpu.num_fp_insts                             0                       # number of float instructions
system.cpu.num_fp_register_reads                    0                       # number of times the floating registers were read
system.cpu.num_fp_register_writes                   0                       # number of times the floating registers were written
system.cpu.num_func_calls                           0                       # number of times a function call or return occured
system.cpu.num_idle_cycles                          0                       # Number of idle cycles
system.cpu.num_int_alu_accesses                    21                       # Number of integer alu accesses
system.cpu.num_int_insts                           21                       # number of integer instructions
system.cpu.num_int_register_reads                  45                       # number of times the integer registers were read
system.cpu.num_int_register_writes                 16                       # number of times the integer registers were written
system.cpu.num_load_insts                           5                       # Number of load instructions
system.cpu.num_mem_refs                             7                       # number of memory refs
system.cpu.num_store_insts                          2                       # Number of store instructions
system.cpu.num_vec_alu_accesses                     0                       # Number of vector alu accesses
system.cpu.num_vec_insts                            0                       # number of vector instructions
system.cpu.num_vec_register_reads                   0                       # number of times the vector registers were read
system.cpu.num_vec_register_writes                  0                       # number of times the vector registers were written
system.cpu.op_class::No_OpClass                     0      0.00%      0.00% # Class of executed instruction
system.cpu.op_class::IntAlu                        14     66.67%     66.67% # Class of executed instruction
system.cpu.op_class::IntMult                        0      0.00%     66.67% # Class of executed instruction
system.cpu.op_class::IntDiv                         0      0.00%     66.67% # Class of executed instruction
system.cpu.op_class::FloatAdd                       0      0.00%     66.67% # Class of executed instruction
system.cpu.op_class::FloatCmp                       0      0.00%     66.67% # Class of executed instruction
system.cpu.op_class::FloatCvt                       0      0.00%     66.67% # Class of executed instruction
system.cpu.op_class::FloatMult                      0      0.00%     66.67% # Class of executed instruction
system.cpu.op_class::FloatMultAcc                   0      0.00%     66.67% # Class of executed instruction
system.cpu.op_class::FloatDiv                       0      0.00%     66.67% # Class of executed instruction
system.cpu.op_class::FloatMisc                      0      0.00%     66.67% # Class of executed instruction
system.cpu.op_class::FloatSqrt                      0      0.00%     66.67% # Class of executed instruction
system.cpu.op_class::SimdAdd                        0      0.00%     66.67% # Class of executed instruction
system.cpu.op_class::SimdAddAcc                     0      0.00%     66.67% # Class of executed instruction
system.cpu.op_class::SimdAlu                        0      0.00%     66.67% # Class of executed instruction
system.cpu.op_class::SimdCmp                        0      0.00%     66.67% # Class of executed instruction
system.cpu.op_class::SimdCvt                        0      0.00%     66.67% # Class of executed instruction
system.cpu.op_class::SimdMisc                       0      0.00%     66.67% # Class of executed instruction
system.cpu.op_class::SimdMult                       0      0.00%     66.67% # Class of executed instruction
system.cpu.op_class::SimdMultAcc                    0      0.00%     66.67% # Class of executed instruction
system.cpu.op_class::SimdShift                      0      0.00%     66.67% # Class of executed instruction
system.cpu.op_class::SimdShiftAcc                   0      0.00%     66.67% # Class of executed instruction
system.cpu.op_class::SimdDiv                        0      0.00%     66.67% # Class of executed instruction
system.cpu.op_class::SimdSqrt                       0      0.00%     66.67% # Class of executed instruction
system.cpu.op_class::SimdFloatAdd                   0      0.00%     66.67% # Class of executed instruction
system.cpu.op_class::SimdFloatAlu                   0      0.00%     66.67% # Class of executed instruction
system.cpu.op_class::SimdFloatCmp                   0      0.00%     66.67% # Class of executed instruction
system.cpu.op_class::SimdFloatCvt                   0      0.00%     66.67% # Class of executed instruction
system.cpu.op_class::SimdFloatDiv                   0      0.00%     66.67% # Class of executed instruction
system.cpu.op_class::SimdFloatMisc                  0      0.00%     66.67% # Class of executed instruction
system.cpu.op_class::SimdFloatMult                  0      0.00%     66.67% # Class of executed instruction
system.cpu.op_class::SimdFloatMultAcc               0      0.00%     66.67% # Class of executed instruction
system.cpu.op_class::SimdFloatSqrt                  0      0.00%     66.67% # Class of executed instruction
system.cpu.op_class::SimdReduceAdd                  0      0.00%     66.67% # Class of executed instruction
system.cpu.op_class::SimdReduceAlu                  0      0.00%     66.67% # Class of executed instruction
system.cpu.op_class::SimdReduceCmp                  0      0.00%     66.67% # Class of executed instruction
system.cpu.op_class::SimdFloatReduceAdd             0      0.00%     66.67% # Class of executed instruction
system.cpu.op_class::SimdFloatReduceCmp             0      0.00%     66.67% # Class of executed instruction
system.cpu.op_class::SimdAes                        0      0.00%     66.67% # Class of executed instruction
system.cpu.op_class::SimdAesMix                     0      0.00%     66.67% # Class of executed instruction
system.cpu.op_class::SimdSha1Hash                   0      0.00%     66.67% # Class of executed instruction
system.cpu.op_class::SimdSha1Hash2                  0      0.00%     66.67% # Class of executed instruction
system.cpu.op_class::SimdSha256Hash                 0      0.00%     66.67% # Class of executed instruction
system.cpu.op_class::SimdSha256Hash2                0      0.00%     66.67% # Class of executed instruction
system.cpu.op_class::SimdShaSigma2                  0      0.00%     66.67% # Class of executed instruction
system.cpu.op_class::SimdShaSigma3                  0      0.00%     66.67% # Class of executed instruction
system.cpu.op_class::SimdPredAlu                    0      0.00%     66.67% # Class of executed instruction
system.cpu.op_class::MemRead                        5     23.81%     90.48% # Class of executed instruction
system.cpu.op_class::MemWrite                       2      9.52%    100.00% # Class of executed instruction
system.cpu.op_class::FloatMemRead                   0      0.00%    100.00% # Class of executed instruction
system.cpu.op_class::FloatMemWrite                  0      0.00%    100.00% # Class of executed instruction
system.cpu.op_class::IprAccess                      0      0.00%    100.00% # Class of executed instruction
system.cpu.op_class::InstPrefetch                   0      0.00%    100.00% # Class of executed instruction
system.cpu.op_class::total                         21                       # Class of executed instruction
system.cpu.workload.numSyscalls                     0                       # Number of system calls
system.l2.prefetcher.num_hwpf_issued               24                       # number of hwpf issued
system.l2.prefetcher.pfBufferHit                    0                       # number of redundant prefetches already in prefetch queue
system.l2.prefetcher.pfIdentified                  24                       # number of prefetch candidates identified
system.l2.prefetcher.pfInCache                      0                       # number of redundant prefetches already in cache/mshr dropped
system.l2.prefetcher.pfRemovedFull                  0                       # number of prefetches dropped due to prefetch queue size
system.l2.prefetcher.pfSpanPage                840396                       # number of prefetches that crossed the page
system.membus.snoop_filter.hit_multi_requests            0                       # Number of requests hitting in the snoop filter with multiple (>1) holders of the requested data.
system.membus.snoop_filter.hit_multi_snoops            0                       # Number of snoops hitting in the snoop filter with multiple (>1) holders of the requested data.
system.membus.snoop_filter.hit_single_requests       540896                       # Number of requests hitting in the snoop filter with a single holder of the requested data.
system.membus.snoop_filter.hit_single_snoops            0                       # Number of snoops hitting in the snoop filter with a single holder of the requested data.
system.membus.snoop_filter.tot_requests       1086021                       # Total number of requests made to the snoop filter.
system.membus.snoop_filter.tot_snoops               0                       # Total number of snoops made to the snoop filter.
system.switch_cpus.branchPred.BTBCorrect            0                       # Number of correct BTB predictions (this stat may not work properly.
system.switch_cpus.branchPred.BTBHitPct      0.000000                       # BTB Hit Percentage
system.switch_cpus.branchPred.BTBHits               0                       # Number of BTB hits
system.switch_cpus.branchPred.BTBLookups      6519912                       # Number of BTB lookups
system.switch_cpus.branchPred.RASInCorrect            1                       # Number of incorrect RAS predictions.
system.switch_cpus.branchPred.condIncorrect       562896                       # Number of conditional branches incorrect
system.switch_cpus.branchPred.condPredicted      7021711                       # Number of conditional branches predicted
system.switch_cpus.branchPred.indirectHits      2738126                       # Number of indirect target hits.
system.switch_cpus.branchPred.indirectLookups      6519912                       # Number of indirect predictor lookups.
system.switch_cpus.branchPred.indirectMisses      3781786                       # Number of indirect misses.
system.switch_cpus.branchPred.lookups         7174526                       # Number of BP lookups
system.switch_cpus.branchPred.usedRAS           83245                       # Number of times the RAS was used to get a target.
system.switch_cpus.branchPredindirectMispredicted       384827                       # Number of mispredicted indirect branches.
system.switch_cpus.cc_regfile_reads          17672940                       # number of cc regfile reads
system.switch_cpus.cc_regfile_writes         11428104                       # number of cc regfile writes
system.switch_cpus.commit.amos                      0                       # Number of atomic instructions committed
system.switch_cpus.commit.branchMispredicts       562918                       # The number of times a branch was mispredicted
system.switch_cpus.commit.branches            2476523                       # Number of branches committed
system.switch_cpus.commit.bw_lim_events       1024569                       # number cycles where commit BW limit reached
system.switch_cpus.commit.commitSquashedInsts     19484200                       # The number of squashed insts skipped by commit
system.switch_cpus.commit.committedInsts     10000004                       # Number of instructions committed
system.switch_cpus.commit.committedOps       17240038                       # Number of ops (including micro ops) committed
system.switch_cpus.commit.committed_per_cycle::samples     47705527                       # Number of insts commited each cycle
system.switch_cpus.commit.committed_per_cycle::mean     0.361384                       # Number of insts commited each cycle
system.switch_cpus.commit.committed_per_cycle::stdev     1.375216                       # Number of insts commited each cycle
system.switch_cpus.commit.committed_per_cycle::underflows            0      0.00%      0.00% # Number of insts commited each cycle
system.switch_cpus.commit.committed_per_cycle::0     42938591     90.01%     90.01% # Number of insts commited each cycle
system.switch_cpus.commit.committed_per_cycle::1      1640721      3.44%     93.45% # Number of insts commited each cycle
system.switch_cpus.commit.committed_per_cycle::2       357263      0.75%     94.20% # Number of insts commited each cycle
system.switch_cpus.commit.committed_per_cycle::3       938976      1.97%     96.16% # Number of insts commited each cycle
system.switch_cpus.commit.committed_per_cycle::4       398488      0.84%     97.00% # Number of insts commited each cycle
system.switch_cpus.commit.committed_per_cycle::5       233998      0.49%     97.49% # Number of insts commited each cycle
system.switch_cpus.commit.committed_per_cycle::6       103078      0.22%     97.71% # Number of insts commited each cycle
system.switch_cpus.commit.committed_per_cycle::7        69843      0.15%     97.85% # Number of insts commited each cycle
system.switch_cpus.commit.committed_per_cycle::8      1024569      2.15%    100.00% # Number of insts commited each cycle
system.switch_cpus.commit.committed_per_cycle::overflows            0      0.00%    100.00% # Number of insts commited each cycle
system.switch_cpus.commit.committed_per_cycle::min_value            0                       # Number of insts commited each cycle
system.switch_cpus.commit.committed_per_cycle::max_value            8                       # Number of insts commited each cycle
system.switch_cpus.commit.committed_per_cycle::total     47705527                       # Number of insts commited each cycle
system.switch_cpus.commit.fp_insts                  0                       # Number of committed floating point instructions.
system.switch_cpus.commit.function_calls         5900                       # Number of function calls committed.
system.switch_cpus.commit.int_insts          17177966                       # Number of committed integer instructions.
system.switch_cpus.commit.loads               3454882                       # Number of loads committed
system.switch_cpus.commit.membars                   0                       # Number of memory barriers committed
system.switch_cpus.commit.op_class_0::No_OpClass        56255      0.33%      0.33% # Class of committed instruction
system.switch_cpus.commit.op_class_0::IntAlu     13093980     75.95%     76.28% # Class of committed instruction
system.switch_cpus.commit.op_class_0::IntMult          808      0.00%     76.28% # Class of committed instruction
system.switch_cpus.commit.op_class_0::IntDiv            0      0.00%     76.28% # Class of committed instruction
system.switch_cpus.commit.op_class_0::FloatAdd            0      0.00%     76.28% # Class of committed instruction
system.switch_cpus.commit.op_class_0::FloatCmp            0      0.00%     76.28% # Class of committed instruction
system.switch_cpus.commit.op_class_0::FloatCvt            0      0.00%     76.28% # Class of committed instruction
system.switch_cpus.commit.op_class_0::FloatMult            0      0.00%     76.28% # Class of committed instruction
system.switch_cpus.commit.op_class_0::FloatMultAcc            0      0.00%     76.28% # Class of committed instruction
system.switch_cpus.commit.op_class_0::FloatDiv            0      0.00%     76.28% # Class of committed instruction
system.switch_cpus.commit.op_class_0::FloatMisc            0      0.00%     76.28% # Class of committed instruction
system.switch_cpus.commit.op_class_0::FloatSqrt            0      0.00%     76.28% # Class of committed instruction
system.switch_cpus.commit.op_class_0::SimdAdd            0      0.00%     76.28% # Class of committed instruction
system.switch_cpus.commit.op_class_0::SimdAddAcc            0      0.00%     76.28% # Class of committed instruction
system.switch_cpus.commit.op_class_0::SimdAlu            0      0.00%     76.28% # Class of committed instruction
system.switch_cpus.commit.op_class_0::SimdCmp            0      0.00%     76.28% # Class of committed instruction
system.switch_cpus.commit.op_class_0::SimdCvt            0      0.00%     76.28% # Class of committed instruction
system.switch_cpus.commit.op_class_0::SimdMisc            0      0.00%     76.28% # Class of committed instruction
system.switch_cpus.commit.op_class_0::SimdMult            0      0.00%     76.28% # Class of committed instruction
system.switch_cpus.commit.op_class_0::SimdMultAcc            0      0.00%     76.28% # Class of committed instruction
system.switch_cpus.commit.op_class_0::SimdShift            0      0.00%     76.28% # Class of committed instruction
system.switch_cpus.commit.op_class_0::SimdShiftAcc            0      0.00%     76.28% # Class of committed instruction
system.switch_cpus.commit.op_class_0::SimdDiv            0      0.00%     76.28% # Class of committed instruction
system.switch_cpus.commit.op_class_0::SimdSqrt            0      0.00%     76.28% # Class of committed instruction
system.switch_cpus.commit.op_class_0::SimdFloatAdd            0      0.00%     76.28% # Class of committed instruction
system.switch_cpus.commit.op_class_0::SimdFloatAlu            0      0.00%     76.28% # Class of committed instruction
system.switch_cpus.commit.op_class_0::SimdFloatCmp            0      0.00%     76.28% # Class of committed instruction
system.switch_cpus.commit.op_class_0::SimdFloatCvt            0      0.00%     76.28% # Class of committed instruction
system.switch_cpus.commit.op_class_0::SimdFloatDiv            0      0.00%     76.28% # Class of committed instruction
system.switch_cpus.commit.op_class_0::SimdFloatMisc            0      0.00%     76.28% # Class of committed instruction
system.switch_cpus.commit.op_class_0::SimdFloatMult            0      0.00%     76.28% # Class of committed instruction
system.switch_cpus.commit.op_class_0::SimdFloatMultAcc            0      0.00%     76.28% # Class of committed instruction
system.switch_cpus.commit.op_class_0::SimdFloatSqrt            0      0.00%     76.28% # Class of committed instruction
system.switch_cpus.commit.op_class_0::SimdReduceAdd            0      0.00%     76.28% # Class of committed instruction
system.switch_cpus.commit.op_class_0::SimdReduceAlu            0      0.00%     76.28% # Class of committed instruction
system.switch_cpus.commit.op_class_0::SimdReduceCmp            0      0.00%     76.28% # Class of committed instruction
system.switch_cpus.commit.op_class_0::SimdFloatReduceAdd            0      0.00%     76.28% # Class of committed instruction
system.switch_cpus.commit.op_class_0::SimdFloatReduceCmp            0      0.00%     76.28% # Class of committed instruction
system.switch_cpus.commit.op_class_0::SimdAes            0      0.00%     76.28% # Class of committed instruction
system.switch_cpus.commit.op_class_0::SimdAesMix            0      0.00%     76.28% # Class of committed instruction
system.switch_cpus.commit.op_class_0::SimdSha1Hash            0      0.00%     76.28% # Class of committed instruction
system.switch_cpus.commit.op_class_0::SimdSha1Hash2            0      0.00%     76.28% # Class of committed instruction
system.switch_cpus.commit.op_class_0::SimdSha256Hash            0      0.00%     76.28% # Class of committed instruction
system.switch_cpus.commit.op_class_0::SimdSha256Hash2            0      0.00%     76.28% # Class of committed instruction
system.switch_cpus.commit.op_class_0::SimdShaSigma2            0      0.00%     76.28% # Class of committed instruction
system.switch_cpus.commit.op_class_0::SimdShaSigma3            0      0.00%     76.28% # Class of committed instruction
system.switch_cpus.commit.op_class_0::SimdPredAlu            0      0.00%     76.28% # Class of committed instruction
system.switch_cpus.commit.op_class_0::MemRead      3454882     20.04%     96.32% # Class of committed instruction
system.switch_cpus.commit.op_class_0::MemWrite       634113      3.68%    100.00% # Class of committed instruction
system.switch_cpus.commit.op_class_0::FloatMemRead            0      0.00%    100.00% # Class of committed instruction
system.switch_cpus.commit.op_class_0::FloatMemWrite            0      0.00%    100.00% # Class of committed instruction
system.switch_cpus.commit.op_class_0::IprAccess            0      0.00%    100.00% # Class of committed instruction
system.switch_cpus.commit.op_class_0::InstPrefetch            0      0.00%    100.00% # Class of committed instruction
system.switch_cpus.commit.op_class_0::total     17240038                       # Class of committed instruction
system.switch_cpus.commit.refs                4088995                       # Number of memory references committed
system.switch_cpus.commit.swp_count                 0                       # Number of s/w prefetches committed
system.switch_cpus.commit.vec_insts                 0                       # Number of committed Vector instructions.
system.switch_cpus.committedInsts            10000004                       # Number of Instructions Simulated
system.switch_cpus.committedOps              17240038                       # Number of Ops (including micro ops) Simulated
system.switch_cpus.cpi                       5.075536                       # CPI: Cycles Per Instruction
system.switch_cpus.cpi_total                 5.075536                       # CPI: Total CPI of All Threads
system.switch_cpus.decode.BlockedCycles      41528689                       # Number of cycles decode is blocked
system.switch_cpus.decode.DecodedInsts       44354490                       # Number of instructions handled by decode
system.switch_cpus.decode.IdleCycles          2398177                       # Number of cycles decode is idle
system.switch_cpus.decode.RunCycles           4826639                       # Number of cycles decode is running
system.switch_cpus.decode.SquashCycles         563839                       # Number of cycles decode is squashing
system.switch_cpus.decode.UnblockCycles       1434049                       # Number of cycles decode is unblocking
system.switch_cpus.dtb.rdAccesses             5337462                       # TLB accesses on read requests
system.switch_cpus.dtb.rdMisses                788409                       # TLB misses on read requests
system.switch_cpus.dtb.wrAccesses              977828                       # TLB accesses on write requests
system.switch_cpus.dtb.wrMisses                 25605                       # TLB misses on write requests
system.switch_cpus.fetch.Branches             7174526                       # Number of branches that fetch encountered
system.switch_cpus.fetch.CacheLines           2482340                       # Number of cache lines fetched
system.switch_cpus.fetch.Cycles              47411246                       # Number of cycles fetch has run and was not squashing or blocked
system.switch_cpus.fetch.IcacheSquashes        120416                       # Number of outstanding Icache misses that were squashed
system.switch_cpus.fetch.Insts               29573163                       # Number of instructions fetch has processed
system.switch_cpus.fetch.MiscStallCycles           22                       # Number of cycles fetch has spent waiting on interrupts, or bad addresses, or out of MSHRs
system.switch_cpus.fetch.PendingTrapStallCycles          135                       # Number of stall cycles due to pending traps
system.switch_cpus.fetch.SquashCycles         1127678                       # Number of cycles fetch has spent squashing
system.switch_cpus.fetch.branchRate          0.141355                       # Number of branch fetches per cycle
system.switch_cpus.fetch.icacheStallCycles      2776157                       # Number of cycles fetch is stalled on an Icache miss
system.switch_cpus.fetch.predictedBranches      2821371                       # Number of branches that fetch has predicted taken
system.switch_cpus.fetch.rate                0.582661                       # Number of inst fetches per cycle
system.switch_cpus.fetch.rateDist::samples     50751399                       # Number of instructions fetched each cycle (Total)
system.switch_cpus.fetch.rateDist::mean      1.007884                       # Number of instructions fetched each cycle (Total)
system.switch_cpus.fetch.rateDist::stdev     2.448527                       # Number of instructions fetched each cycle (Total)
system.switch_cpus.fetch.rateDist::underflows            0      0.00%      0.00% # Number of instructions fetched each cycle (Total)
system.switch_cpus.fetch.rateDist::0         42305736     83.36%     83.36% # Number of instructions fetched each cycle (Total)
system.switch_cpus.fetch.rateDist::1           392355      0.77%     84.13% # Number of instructions fetched each cycle (Total)
system.switch_cpus.fetch.rateDist::2           573513      1.13%     85.26% # Number of instructions fetched each cycle (Total)
system.switch_cpus.fetch.rateDist::3           540505      1.07%     86.33% # Number of instructions fetched each cycle (Total)
system.switch_cpus.fetch.rateDist::4           868225      1.71%     88.04% # Number of instructions fetched each cycle (Total)
system.switch_cpus.fetch.rateDist::5           974807      1.92%     89.96% # Number of instructions fetched each cycle (Total)
system.switch_cpus.fetch.rateDist::6           373175      0.74%     90.69% # Number of instructions fetched each cycle (Total)
system.switch_cpus.fetch.rateDist::7           380029      0.75%     91.44% # Number of instructions fetched each cycle (Total)
system.switch_cpus.fetch.rateDist::8          4343054      8.56%    100.00% # Number of instructions fetched each cycle (Total)
system.switch_cpus.fetch.rateDist::overflows            0      0.00%    100.00% # Number of instructions fetched each cycle (Total)
system.switch_cpus.fetch.rateDist::min_value            0                       # Number of instructions fetched each cycle (Total)
system.switch_cpus.fetch.rateDist::max_value            8                       # Number of instructions fetched each cycle (Total)
system.switch_cpus.fetch.rateDist::total     50751399                       # Number of instructions fetched each cycle (Total)
system.switch_cpus.fp_regfile_writes               56                       # number of floating regfile writes
system.switch_cpus.idleCycles                    3978                       # Total number of cycles that the CPU has spent unscheduled due to idling
system.switch_cpus.iew.branchMispredicts       739379                       # Number of branch mispredicts detected at execute
system.switch_cpus.iew.exec_branches          3751586                       # Number of branches executed
system.switch_cpus.iew.exec_nop                     0                       # number of nop insts executed
system.switch_cpus.iew.exec_rate             0.690733                       # Inst execution rate
system.switch_cpus.iew.exec_refs             11590893                       # number of memory reference insts executed
system.switch_cpus.iew.exec_stores             977684                       # Number of stores executed
system.switch_cpus.iew.exec_swp                     0                       # number of swp insts executed
system.switch_cpus.iew.iewBlockCycles        21105212                       # Number of cycles IEW is blocking
system.switch_cpus.iew.iewDispLoadInsts       6696553                       # Number of dispatched load instructions
system.switch_cpus.iew.iewDispNonSpecInsts            0                       # Number of dispatched non-speculative instructions
system.switch_cpus.iew.iewDispSquashedInsts        74294                       # Number of squashed instructions skipped by dispatch
system.switch_cpus.iew.iewDispStoreInsts      1470486                       # Number of dispatched store instructions
system.switch_cpus.iew.iewDispatchedInsts     36706956                       # Number of instructions dispatched to IQ
system.switch_cpus.iew.iewExecLoadInsts      10613209                       # Number of load instructions executed
system.switch_cpus.iew.iewExecSquashedInsts      1277787                       # Number of squashed instructions skipped in execute
system.switch_cpus.iew.iewExecutedInsts      35058428                       # Number of executed instructions
system.switch_cpus.iew.iewIQFullEvents         228201                       # Number of times the IQ has become full, causing a stall
system.switch_cpus.iew.iewIdleCycles                0                       # Number of cycles IEW is idle
system.switch_cpus.iew.iewLSQFullEvents       3225203                       # Number of times the LSQ has become full, causing a stall
system.switch_cpus.iew.iewSquashCycles         563839                       # Number of cycles IEW is squashing
system.switch_cpus.iew.iewUnblockCycles       3603409                       # Number of cycles IEW is unblocking
system.switch_cpus.iew.lsq.thread0.blockedLoads            0                       # Number of blocked loads due to partial load-store forwarding
system.switch_cpus.iew.lsq.thread0.cacheBlocked       585982                       # Number of times an access to memory failed due to the cache being blocked
system.switch_cpus.iew.lsq.thread0.forwLoads       114790                       # Number of loads that had data forwarded from stores
system.switch_cpus.iew.lsq.thread0.ignoredResponses          888                       # Number of memory responses ignored because the instruction is squashed
system.switch_cpus.iew.lsq.thread0.invAddrLoads            0                       # Number of loads ignored due to an invalid address
system.switch_cpus.iew.lsq.thread0.invAddrSwpfs            0                       # Number of software prefetches ignored due to an invalid address
system.switch_cpus.iew.lsq.thread0.memOrderViolation         1537                       # Number of memory ordering violations
system.switch_cpus.iew.lsq.thread0.rescheduledLoads            0                       # Number of loads that were rescheduled
system.switch_cpus.iew.lsq.thread0.squashedLoads      3241666                       # Number of loads squashed
system.switch_cpus.iew.lsq.thread0.squashedStores       836371                       # Number of stores squashed
system.switch_cpus.iew.memOrderViolationEvents         1537                       # Number of memory order violations
system.switch_cpus.iew.predictedNotTakenIncorrect       587270                       # Number of branches that were predicted not taken incorrectly
system.switch_cpus.iew.predictedTakenIncorrect       152109                       # Number of branches that were predicted taken incorrectly
system.switch_cpus.iew.wb_consumers          30616297                       # num instructions consuming a value
system.switch_cpus.iew.wb_count              28753211                       # cumulative count of insts written-back
system.switch_cpus.iew.wb_fanout             0.684860                       # average fanout of values written-back
system.switch_cpus.iew.wb_producers          20967879                       # num instructions producing a value
system.switch_cpus.iew.wb_rate               0.566506                       # insts written-back per cycle
system.switch_cpus.iew.wb_sent               28903990                       # cumulative count of insts sent to commit
system.switch_cpus.int_regfile_reads         47866130                       # number of integer regfile reads
system.switch_cpus.int_regfile_writes        23799866                       # number of integer regfile writes
system.switch_cpus.ipc                       0.197024                       # IPC: Instructions Per Cycle
system.switch_cpus.ipc_total                 0.197024                       # IPC: Total IPC of All Threads
system.switch_cpus.iq.FU_type_0::No_OpClass       337765      0.93%      0.93% # Type of FU issued
system.switch_cpus.iq.FU_type_0::IntAlu      24086535     66.29%     67.22% # Type of FU issued
system.switch_cpus.iq.FU_type_0::IntMult         1085      0.00%     67.22% # Type of FU issued
system.switch_cpus.iq.FU_type_0::IntDiv             0      0.00%     67.22% # Type of FU issued
system.switch_cpus.iq.FU_type_0::FloatAdd            0      0.00%     67.22% # Type of FU issued
system.switch_cpus.iq.FU_type_0::FloatCmp            0      0.00%     67.22% # Type of FU issued
system.switch_cpus.iq.FU_type_0::FloatCvt            0      0.00%     67.22% # Type of FU issued
system.switch_cpus.iq.FU_type_0::FloatMult            0      0.00%     67.22% # Type of FU issued
system.switch_cpus.iq.FU_type_0::FloatMultAcc            0      0.00%     67.22% # Type of FU issued
system.switch_cpus.iq.FU_type_0::FloatDiv            0      0.00%     67.22% # Type of FU issued
system.switch_cpus.iq.FU_type_0::FloatMisc            0      0.00%     67.22% # Type of FU issued
system.switch_cpus.iq.FU_type_0::FloatSqrt            0      0.00%     67.22% # Type of FU issued
system.switch_cpus.iq.FU_type_0::SimdAdd            0      0.00%     67.22% # Type of FU issued
system.switch_cpus.iq.FU_type_0::SimdAddAcc            0      0.00%     67.22% # Type of FU issued
system.switch_cpus.iq.FU_type_0::SimdAlu            0      0.00%     67.22% # Type of FU issued
system.switch_cpus.iq.FU_type_0::SimdCmp            0      0.00%     67.22% # Type of FU issued
system.switch_cpus.iq.FU_type_0::SimdCvt            0      0.00%     67.22% # Type of FU issued
system.switch_cpus.iq.FU_type_0::SimdMisc            0      0.00%     67.22% # Type of FU issued
system.switch_cpus.iq.FU_type_0::SimdMult            0      0.00%     67.22% # Type of FU issued
system.switch_cpus.iq.FU_type_0::SimdMultAcc            0      0.00%     67.22% # Type of FU issued
system.switch_cpus.iq.FU_type_0::SimdShift            0      0.00%     67.22% # Type of FU issued
system.switch_cpus.iq.FU_type_0::SimdShiftAcc            0      0.00%     67.22% # Type of FU issued
system.switch_cpus.iq.FU_type_0::SimdDiv            0      0.00%     67.22% # Type of FU issued
system.switch_cpus.iq.FU_type_0::SimdSqrt            0      0.00%     67.22% # Type of FU issued
system.switch_cpus.iq.FU_type_0::SimdFloatAdd            0      0.00%     67.22% # Type of FU issued
system.switch_cpus.iq.FU_type_0::SimdFloatAlu            0      0.00%     67.22% # Type of FU issued
system.switch_cpus.iq.FU_type_0::SimdFloatCmp            0      0.00%     67.22% # Type of FU issued
system.switch_cpus.iq.FU_type_0::SimdFloatCvt            0      0.00%     67.22% # Type of FU issued
system.switch_cpus.iq.FU_type_0::SimdFloatDiv            0      0.00%     67.22% # Type of FU issued
system.switch_cpus.iq.FU_type_0::SimdFloatMisc            0      0.00%     67.22% # Type of FU issued
system.switch_cpus.iq.FU_type_0::SimdFloatMult            0      0.00%     67.22% # Type of FU issued
system.switch_cpus.iq.FU_type_0::SimdFloatMultAcc            0      0.00%     67.22% # Type of FU issued
system.switch_cpus.iq.FU_type_0::SimdFloatSqrt            0      0.00%     67.22% # Type of FU issued
system.switch_cpus.iq.FU_type_0::SimdReduceAdd            0      0.00%     67.22% # Type of FU issued
system.switch_cpus.iq.FU_type_0::SimdReduceAlu            0      0.00%     67.22% # Type of FU issued
system.switch_cpus.iq.FU_type_0::SimdReduceCmp            0      0.00%     67.22% # Type of FU issued
system.switch_cpus.iq.FU_type_0::SimdFloatReduceAdd            0      0.00%     67.22% # Type of FU issued
system.switch_cpus.iq.FU_type_0::SimdFloatReduceCmp            0      0.00%     67.22% # Type of FU issued
system.switch_cpus.iq.FU_type_0::SimdAes            0      0.00%     67.22% # Type of FU issued
system.switch_cpus.iq.FU_type_0::SimdAesMix            0      0.00%     67.22% # Type of FU issued
system.switch_cpus.iq.FU_type_0::SimdSha1Hash            0      0.00%     67.22% # Type of FU issued
system.switch_cpus.iq.FU_type_0::SimdSha1Hash2            0      0.00%     67.22% # Type of FU issued
system.switch_cpus.iq.FU_type_0::SimdSha256Hash            0      0.00%     67.22% # Type of FU issued
system.switch_cpus.iq.FU_type_0::SimdSha256Hash2            0      0.00%     67.22% # Type of FU issued
system.switch_cpus.iq.FU_type_0::SimdShaSigma2            0      0.00%     67.22% # Type of FU issued
system.switch_cpus.iq.FU_type_0::SimdShaSigma3            0      0.00%     67.22% # Type of FU issued
system.switch_cpus.iq.FU_type_0::SimdPredAlu            0      0.00%     67.22% # Type of FU issued
system.switch_cpus.iq.FU_type_0::MemRead     10863767     29.90%     97.12% # Type of FU issued
system.switch_cpus.iq.FU_type_0::MemWrite      1047068      2.88%    100.00% # Type of FU issued
system.switch_cpus.iq.FU_type_0::FloatMemRead            0      0.00%    100.00% # Type of FU issued
system.switch_cpus.iq.FU_type_0::FloatMemWrite            0      0.00%    100.00% # Type of FU issued
system.switch_cpus.iq.FU_type_0::IprAccess            0      0.00%    100.00% # Type of FU issued
system.switch_cpus.iq.FU_type_0::InstPrefetch            0      0.00%    100.00% # Type of FU issued
system.switch_cpus.iq.FU_type_0::total       36336220                       # Type of FU issued
system.switch_cpus.iq.fp_alu_accesses               0                       # Number of floating point alu accesses
system.switch_cpus.iq.fp_inst_queue_reads            0                       # Number of floating instruction queue reads
system.switch_cpus.iq.fp_inst_queue_wakeup_accesses            0                       # Number of floating instruction queue wakeup accesses
system.switch_cpus.iq.fp_inst_queue_writes            0                       # Number of floating instruction queue writes
system.switch_cpus.iq.fu_busy_cnt             1369918                       # FU busy when requested
system.switch_cpus.iq.fu_busy_rate           0.037701                       # FU busy rate (busy events/executed inst)
system.switch_cpus.iq.fu_full::No_OpClass            0      0.00%      0.00% # attempts to use FU when none available
system.switch_cpus.iq.fu_full::IntAlu          291943     21.31%     21.31% # attempts to use FU when none available
system.switch_cpus.iq.fu_full::IntMult              0      0.00%     21.31% # attempts to use FU when none available
system.switch_cpus.iq.fu_full::IntDiv               0      0.00%     21.31% # attempts to use FU when none available
system.switch_cpus.iq.fu_full::FloatAdd             0      0.00%     21.31% # attempts to use FU when none available
system.switch_cpus.iq.fu_full::FloatCmp             0      0.00%     21.31% # attempts to use FU when none available
system.switch_cpus.iq.fu_full::FloatCvt             0      0.00%     21.31% # attempts to use FU when none available
system.switch_cpus.iq.fu_full::FloatMult            0      0.00%     21.31% # attempts to use FU when none available
system.switch_cpus.iq.fu_full::FloatMultAcc            0      0.00%     21.31% # attempts to use FU when none available
system.switch_cpus.iq.fu_full::FloatDiv             0      0.00%     21.31% # attempts to use FU when none available
system.switch_cpus.iq.fu_full::FloatMisc            0      0.00%     21.31% # attempts to use FU when none available
system.switch_cpus.iq.fu_full::FloatSqrt            0      0.00%     21.31% # attempts to use FU when none available
system.switch_cpus.iq.fu_full::SimdAdd              0      0.00%     21.31% # attempts to use FU when none available
system.switch_cpus.iq.fu_full::SimdAddAcc            0      0.00%     21.31% # attempts to use FU when none available
system.switch_cpus.iq.fu_full::SimdAlu              0      0.00%     21.31% # attempts to use FU when none available
system.switch_cpus.iq.fu_full::SimdCmp              0      0.00%     21.31% # attempts to use FU when none available
system.switch_cpus.iq.fu_full::SimdCvt              0      0.00%     21.31% # attempts to use FU when none available
system.switch_cpus.iq.fu_full::SimdMisc             0      0.00%     21.31% # attempts to use FU when none available
system.switch_cpus.iq.fu_full::SimdMult             0      0.00%     21.31% # attempts to use FU when none available
system.switch_cpus.iq.fu_full::SimdMultAcc            0      0.00%     21.31% # attempts to use FU when none available
system.switch_cpus.iq.fu_full::SimdShift            0      0.00%     21.31% # attempts to use FU when none available
system.switch_cpus.iq.fu_full::SimdShiftAcc            0      0.00%     21.31% # attempts to use FU when none available
system.switch_cpus.iq.fu_full::SimdDiv              0      0.00%     21.31% # attempts to use FU when none available
system.switch_cpus.iq.fu_full::SimdSqrt             0      0.00%     21.31% # attempts to use FU when none available
system.switch_cpus.iq.fu_full::SimdFloatAdd            0      0.00%     21.31% # attempts to use FU when none available
system.switch_cpus.iq.fu_full::SimdFloatAlu            0      0.00%     21.31% # attempts to use FU when none available
system.switch_cpus.iq.fu_full::SimdFloatCmp            0      0.00%     21.31% # attempts to use FU when none available
system.switch_cpus.iq.fu_full::SimdFloatCvt            0      0.00%     21.31% # attempts to use FU when none available
system.switch_cpus.iq.fu_full::SimdFloatDiv            0      0.00%     21.31% # attempts to use FU when none available
system.switch_cpus.iq.fu_full::SimdFloatMisc            0      0.00%     21.31% # attempts to use FU when none available
system.switch_cpus.iq.fu_full::SimdFloatMult            0      0.00%     21.31% # attempts to use FU when none available
system.switch_cpus.iq.fu_full::SimdFloatMultAcc            0      0.00%     21.31% # attempts to use FU when none available
system.switch_cpus.iq.fu_full::SimdFloatSqrt            0      0.00%     21.31% # attempts to use FU when none available
system.switch_cpus.iq.fu_full::SimdReduceAdd            0      0.00%     21.31% # attempts to use FU when none available
system.switch_cpus.iq.fu_full::SimdReduceAlu            0      0.00%     21.31% # attempts to use FU when none available
system.switch_cpus.iq.fu_full::SimdReduceCmp            0      0.00%     21.31% # attempts to use FU when none available
system.switch_cpus.iq.fu_full::SimdFloatReduceAdd            0      0.00%     21.31% # attempts to use FU when none available
system.switch_cpus.iq.fu_full::SimdFloatReduceCmp            0      0.00%     21.31% # attempts to use FU when none available
system.switch_cpus.iq.fu_full::SimdAes              0      0.00%     21.31% # attempts to use FU when none available
system.switch_cpus.iq.fu_full::SimdAesMix            0      0.00%     21.31% # attempts to use FU when none available
system.switch_cpus.iq.fu_full::SimdSha1Hash            0      0.00%     21.31% # attempts to use FU when none available
system.switch_cpus.iq.fu_full::SimdSha1Hash2            0      0.00%     21.31% # attempts to use FU when none available
system.switch_cpus.iq.fu_full::SimdSha256Hash            0      0.00%     21.31% # attempts to use FU when none available
system.switch_cpus.iq.fu_full::SimdSha256Hash2            0      0.00%     21.31% # attempts to use FU when none available
system.switch_cpus.iq.fu_full::SimdShaSigma2            0      0.00%     21.31% # attempts to use FU when none available
system.switch_cpus.iq.fu_full::SimdShaSigma3            0      0.00%     21.31% # attempts to use FU when none available
system.switch_cpus.iq.fu_full::SimdPredAlu            0      0.00%     21.31% # attempts to use FU when none available
system.switch_cpus.iq.fu_full::MemRead        1035034     75.55%     96.87% # attempts to use FU when none available
system.switch_cpus.iq.fu_full::MemWrite         42941      3.13%    100.00% # attempts to use FU when none available
system.switch_cpus.iq.fu_full::FloatMemRead            0      0.00%    100.00% # attempts to use FU when none available
system.switch_cpus.iq.fu_full::FloatMemWrite            0      0.00%    100.00% # attempts to use FU when none available
system.switch_cpus.iq.fu_full::IprAccess            0      0.00%    100.00% # attempts to use FU when none available
system.switch_cpus.iq.fu_full::InstPrefetch            0      0.00%    100.00% # attempts to use FU when none available
system.switch_cpus.iq.int_alu_accesses       37368373                       # Number of integer alu accesses
system.switch_cpus.iq.int_inst_queue_reads    125215160                       # Number of integer instruction queue reads
system.switch_cpus.iq.int_inst_queue_wakeup_accesses     28753211                       # Number of integer instruction queue wakeup accesses
system.switch_cpus.iq.int_inst_queue_writes     56174921                       # Number of integer instruction queue writes
system.switch_cpus.iq.iqInstsAdded           36706956                       # Number of instructions added to the IQ (excludes non-spec)
system.switch_cpus.iq.iqInstsIssued          36336220                       # Number of instructions issued
system.switch_cpus.iq.iqSquashedInstsExamined     19466876                       # Number of squashed instructions iterated over during squash; mainly for profiling
system.switch_cpus.iq.iqSquashedInstsIssued       421408                       # Number of squashed instructions issued
system.switch_cpus.iq.iqSquashedOperandsExamined     26612301                       # Number of squashed operands that are examined and possibly removed from graph
system.switch_cpus.iq.issued_per_cycle::samples     50751399                       # Number of insts issued each cycle
system.switch_cpus.iq.issued_per_cycle::mean     0.715965                       # Number of insts issued each cycle
system.switch_cpus.iq.issued_per_cycle::stdev     1.650149                       # Number of insts issued each cycle
system.switch_cpus.iq.issued_per_cycle::underflows            0      0.00%      0.00% # Number of insts issued each cycle
system.switch_cpus.iq.issued_per_cycle::0     39612528     78.05%     78.05% # Number of insts issued each cycle
system.switch_cpus.iq.issued_per_cycle::1      3158175      6.22%     84.27% # Number of insts issued each cycle
system.switch_cpus.iq.issued_per_cycle::2      1652405      3.26%     87.53% # Number of insts issued each cycle
system.switch_cpus.iq.issued_per_cycle::3      1516768      2.99%     90.52% # Number of insts issued each cycle
system.switch_cpus.iq.issued_per_cycle::4      1753074      3.45%     93.97% # Number of insts issued each cycle
system.switch_cpus.iq.issued_per_cycle::5      1222749      2.41%     96.38% # Number of insts issued each cycle
system.switch_cpus.iq.issued_per_cycle::6      1010126      1.99%     98.37% # Number of insts issued each cycle
system.switch_cpus.iq.issued_per_cycle::7       468458      0.92%     99.30% # Number of insts issued each cycle
system.switch_cpus.iq.issued_per_cycle::8       357116      0.70%    100.00% # Number of insts issued each cycle
system.switch_cpus.iq.issued_per_cycle::overflows            0      0.00%    100.00% # Number of insts issued each cycle
system.switch_cpus.iq.issued_per_cycle::min_value            0                       # Number of insts issued each cycle
system.switch_cpus.iq.issued_per_cycle::max_value            8                       # Number of insts issued each cycle
system.switch_cpus.iq.issued_per_cycle::total     50751399                       # Number of insts issued each cycle
system.switch_cpus.iq.rate                   0.715909                       # Inst issue rate
system.switch_cpus.iq.vec_alu_accesses              0                       # Number of vector alu accesses
system.switch_cpus.iq.vec_inst_queue_reads            0                       # Number of vector instruction queue reads
system.switch_cpus.iq.vec_inst_queue_wakeup_accesses            0                       # Number of vector instruction queue wakeup accesses
system.switch_cpus.iq.vec_inst_queue_writes            0                       # Number of vector instruction queue writes
system.switch_cpus.itb.rdAccesses                   0                       # TLB accesses on read requests
system.switch_cpus.itb.rdMisses                     0                       # TLB misses on read requests
system.switch_cpus.itb.wrAccesses             2482363                       # TLB accesses on write requests
system.switch_cpus.itb.wrMisses                    26                       # TLB misses on write requests
system.switch_cpus.memDep0.conflictingLoads       469040                       # Number of conflicting loads.
system.switch_cpus.memDep0.conflictingStores       479150                       # Number of conflicting stores.
system.switch_cpus.memDep0.insertedLoads      6696553                       # Number of loads inserted to the mem dependence unit.
system.switch_cpus.memDep0.insertedStores      1470486                       # Number of stores inserted to the mem dependence unit.
system.switch_cpus.misc_regfile_reads        20401638                       # number of misc regfile reads
system.switch_cpus.misc_regfile_writes              1                       # number of misc regfile writes
system.switch_cpus.numCycles                 50755377                       # number of cpu cycles simulated
system.switch_cpus.numWorkItemsCompleted            0                       # number of work items this cpu completed
system.switch_cpus.numWorkItemsStarted              0                       # number of work items this cpu started
system.switch_cpus.rename.BlockCycles        30763071                       # Number of cycles rename is blocking
system.switch_cpus.rename.CommittedMaps      21411880                       # Number of HB maps that are committed
system.switch_cpus.rename.IQFullEvents        4281352                       # Number of times rename has blocked due to IQ full
system.switch_cpus.rename.IdleCycles          3072224                       # Number of cycles rename is idle
system.switch_cpus.rename.LQFullEvents        8321201                       # Number of times rename has blocked due to LQ full
system.switch_cpus.rename.ROBFullEvents        233583                       # Number of times rename has blocked due to ROB full
system.switch_cpus.rename.RenameLookups     106818772                       # Number of register rename lookups that rename has made
system.switch_cpus.rename.RenamedInsts       41565631                       # Number of instructions processed by rename
system.switch_cpus.rename.RenamedOperands     50610240                       # Number of destination operands rename has renamed
system.switch_cpus.rename.RunCycles           5294564                       # Number of cycles rename is running
system.switch_cpus.rename.SQFullEvents         124329                       # Number of times rename has blocked due to SQ full
system.switch_cpus.rename.SquashCycles         563839                       # Number of cycles rename is squashing
system.switch_cpus.rename.UnblockCycles      11053714                       # Number of cycles rename is unblocking
system.switch_cpus.rename.UndoneMaps         29198290                       # Number of HB maps that are undone due to squashing
system.switch_cpus.rename.int_rename_lookups     57346515                       # Number of integer rename lookups
system.switch_cpus.rename.serializeStallCycles         3981                       # count of cycles rename stalled for serializing inst
system.switch_cpus.rename.serializingInsts         6836                       # count of serializing insts renamed
system.switch_cpus.rename.skidInsts           7362744                       # count of insts added to the skid buffer
system.switch_cpus.rename.tempSerializingInsts         6813                       # count of temporary serializing insts renamed
system.switch_cpus.rob.rob_reads             83405196                       # The number of ROB reads
system.switch_cpus.rob.rob_writes            76528557                       # The number of ROB writes
system.switch_cpus.timesIdled                      47                       # Number of times that the entire CPU went into an idle state and unscheduled itself
system.tol2bus.snoop_filter.hit_multi_requests            0                       # Number of requests hitting in the snoop filter with multiple (>1) holders of the requested data.
system.tol2bus.snoop_filter.hit_multi_snoops            0                       # Number of snoops hitting in the snoop filter with multiple (>1) holders of the requested data.
system.tol2bus.snoop_filter.hit_single_requests       956069                       # Number of requests hitting in the snoop filter with a single holder of the requested data.
system.tol2bus.snoop_filter.hit_single_snoops       276889                       # Number of snoops hitting in the snoop filter with a single holder of the requested data.
system.tol2bus.snoop_filter.tot_requests      1913224                       # Total number of requests made to the snoop filter.
system.tol2bus.snoop_filter.tot_snoops         276889                       # Total number of snoops made to the snoop filter.
system.membus.pwrStateResidencyTicks::UNDEFINED 164630004343000                       # Cumulative time (in ticks) in various power states
system.membus.trans_dist::ReadResp             538176                       # Transaction distribution
system.membus.trans_dist::WritebackDirty        75971                       # Transaction distribution
system.membus.trans_dist::CleanEvict           464925                       # Transaction distribution
system.membus.trans_dist::ReadExReq              6949                       # Transaction distribution
system.membus.trans_dist::ReadExResp             6949                       # Transaction distribution
system.membus.trans_dist::ReadSharedReq        538176                       # Transaction distribution
system.membus.pkt_count_system.l2.mem_side::system.mem_ctrls.port      1631146                       # Packet count per connected master and slave (bytes)
system.membus.pkt_count_system.l2.mem_side::total      1631146                       # Packet count per connected master and slave (bytes)
system.membus.pkt_count::total                1631146                       # Packet count per connected master and slave (bytes)
system.membus.pkt_size_system.l2.mem_side::system.mem_ctrls.port     39750144                       # Cumulative packet size per connected master and slave (bytes)
system.membus.pkt_size_system.l2.mem_side::total     39750144                       # Cumulative packet size per connected master and slave (bytes)
system.membus.pkt_size::total                39750144                       # Cumulative packet size per connected master and slave (bytes)
system.membus.snoops                                0                       # Total snoops (count)
system.membus.snoopTraffic                          0                       # Total snoop traffic (bytes)
system.membus.snoop_fanout::samples            545125                       # Request fanout histogram
system.membus.snoop_fanout::mean                    0                       # Request fanout histogram
system.membus.snoop_fanout::stdev                   0                       # Request fanout histogram
system.membus.snoop_fanout::underflows              0      0.00%      0.00% # Request fanout histogram
system.membus.snoop_fanout::0                  545125    100.00%    100.00% # Request fanout histogram
system.membus.snoop_fanout::1                       0      0.00%    100.00% # Request fanout histogram
system.membus.snoop_fanout::overflows               0      0.00%    100.00% # Request fanout histogram
system.membus.snoop_fanout::min_value               0                       # Request fanout histogram
system.membus.snoop_fanout::max_value               0                       # Request fanout histogram
system.membus.snoop_fanout::total              545125                       # Request fanout histogram
system.membus.reqLayer2.occupancy          1514071999                       # Layer occupancy (ticks)
system.membus.reqLayer2.utilization               6.0                       # Layer utilization (%)
system.membus.respLayer1.occupancy         3027068750                       # Layer occupancy (ticks)
system.membus.respLayer1.utilization             11.9                       # Layer utilization (%)
system.switch_cpus.pwrStateResidencyTicks::OFF  25377699250                       # Cumulative time (in ticks) in various power states
system.switch_cpus.dtb.walker.pwrStateResidencyTicks::UNDEFINED 164630004343000                       # Cumulative time (in ticks) in various power states
system.switch_cpus.itb.walker.pwrStateResidencyTicks::UNDEFINED 164630004343000                       # Cumulative time (in ticks) in various power states
system.tol2bus.pwrStateResidencyTicks::UNDEFINED 164630004343000                       # Cumulative time (in ticks) in various power states
system.tol2bus.trans_dist::ReadResp            936321                       # Transaction distribution
system.tol2bus.trans_dist::WritebackDirty       352430                       # Transaction distribution
system.tol2bus.trans_dist::CleanEvict         1192312                       # Transaction distribution
system.tol2bus.trans_dist::HardPFReq               39                       # Transaction distribution
system.tol2bus.trans_dist::ReadExReq            20834                       # Transaction distribution
system.tol2bus.trans_dist::ReadExResp           20834                       # Transaction distribution
system.tol2bus.trans_dist::ReadCleanReq            62                       # Transaction distribution
system.tol2bus.trans_dist::ReadSharedReq       936259                       # Transaction distribution
system.tol2bus.pkt_count_system.cpu.icache.mem_side::system.l2.cpu_side          124                       # Packet count per connected master and slave (bytes)
system.tol2bus.pkt_count_system.cpu.dcache.mem_side::system.l2.cpu_side      2870255                       # Packet count per connected master and slave (bytes)
system.tol2bus.pkt_count::total               2870379                       # Packet count per connected master and slave (bytes)
system.tol2bus.pkt_size_system.cpu.icache.mem_side::system.l2.cpu_side         3968                       # Cumulative packet size per connected master and slave (bytes)
system.tol2bus.pkt_size_system.cpu.dcache.mem_side::system.l2.cpu_side     78947328                       # Cumulative packet size per connected master and slave (bytes)
system.tol2bus.pkt_size::total               78951296                       # Cumulative packet size per connected master and slave (bytes)
system.tol2bus.snoops                          588712                       # Total snoops (count)
system.tol2bus.snoopTraffic                   4862144                       # Total snoop traffic (bytes)
system.tol2bus.snoop_fanout::samples          1545867                       # Request fanout histogram
system.tol2bus.snoop_fanout::mean            0.179116                       # Request fanout histogram
system.tol2bus.snoop_fanout::stdev           0.383449                       # Request fanout histogram
system.tol2bus.snoop_fanout::underflows             0      0.00%      0.00% # Request fanout histogram
system.tol2bus.snoop_fanout::0                1268978     82.09%     82.09% # Request fanout histogram
system.tol2bus.snoop_fanout::1                 276889     17.91%    100.00% # Request fanout histogram
system.tol2bus.snoop_fanout::2                      0      0.00%    100.00% # Request fanout histogram
system.tol2bus.snoop_fanout::3                      0      0.00%    100.00% # Request fanout histogram
system.tol2bus.snoop_fanout::4                      0      0.00%    100.00% # Request fanout histogram
system.tol2bus.snoop_fanout::overflows              0      0.00%    100.00% # Request fanout histogram
system.tol2bus.snoop_fanout::min_value              0                       # Request fanout histogram
system.tol2bus.snoop_fanout::max_value              1                       # Request fanout histogram
system.tol2bus.snoop_fanout::total            1545867                       # Request fanout histogram
system.tol2bus.reqLayer0.occupancy         1233068000                       # Layer occupancy (ticks)
system.tol2bus.reqLayer0.utilization              4.9                       # Layer utilization (%)
system.tol2bus.respLayer1.occupancy        1435632000                       # Layer occupancy (ticks)
system.tol2bus.respLayer1.utilization             5.7                       # Layer utilization (%)
system.tol2bus.respLayer0.occupancy             91999                       # Layer occupancy (ticks)
system.tol2bus.respLayer0.utilization             0.0                       # Layer utilization (%)
system.voltage_domain.voltage                       1                       # Voltage in Volts
system.clk_domain.clock                          1000                       # Clock period in ticks
system.l2.pwrStateResidencyTicks::UNDEFINED 164630004343000                       # Cumulative time (in ticks) in various power states
system.l2.demand_hits::.switch_cpus.data       412052                       # number of demand (read+write) hits
system.l2.demand_hits::total                   412052                       # number of demand (read+write) hits
system.l2.overall_hits::.switch_cpus.data       412052                       # number of overall hits
system.l2.overall_hits::total                  412052                       # number of overall hits
system.l2.demand_misses::.cpu.inst                  1                       # number of demand (read+write) misses
system.l2.demand_misses::.cpu.data                  5                       # number of demand (read+write) misses
system.l2.demand_misses::.switch_cpus.inst           61                       # number of demand (read+write) misses
system.l2.demand_misses::.switch_cpus.data       545036                       # number of demand (read+write) misses
system.l2.demand_misses::total                 545103                       # number of demand (read+write) misses
system.l2.overall_misses::.cpu.inst                 1                       # number of overall misses
system.l2.overall_misses::.cpu.data                 5                       # number of overall misses
system.l2.overall_misses::.switch_cpus.inst           61                       # number of overall misses
system.l2.overall_misses::.switch_cpus.data       545036                       # number of overall misses
system.l2.overall_misses::total                545103                       # number of overall misses
system.l2.demand_miss_latency::.switch_cpus.inst      5091500                       # number of demand (read+write) miss cycles
system.l2.demand_miss_latency::.switch_cpus.data  54744091000                       # number of demand (read+write) miss cycles
system.l2.demand_miss_latency::total      54749182500                       # number of demand (read+write) miss cycles
system.l2.overall_miss_latency::.switch_cpus.inst      5091500                       # number of overall miss cycles
system.l2.overall_miss_latency::.switch_cpus.data  54744091000                       # number of overall miss cycles
system.l2.overall_miss_latency::total     54749182500                       # number of overall miss cycles
system.l2.demand_accesses::.cpu.inst                1                       # number of demand (read+write) accesses
system.l2.demand_accesses::.cpu.data                5                       # number of demand (read+write) accesses
system.l2.demand_accesses::.switch_cpus.inst           61                       # number of demand (read+write) accesses
system.l2.demand_accesses::.switch_cpus.data       957088                       # number of demand (read+write) accesses
system.l2.demand_accesses::total               957155                       # number of demand (read+write) accesses
system.l2.overall_accesses::.cpu.inst               1                       # number of overall (read+write) accesses
system.l2.overall_accesses::.cpu.data               5                       # number of overall (read+write) accesses
system.l2.overall_accesses::.switch_cpus.inst           61                       # number of overall (read+write) accesses
system.l2.overall_accesses::.switch_cpus.data       957088                       # number of overall (read+write) accesses
system.l2.overall_accesses::total              957155                       # number of overall (read+write) accesses
system.l2.demand_miss_rate::.cpu.inst               1                       # miss rate for demand accesses
system.l2.demand_miss_rate::.cpu.data               1                       # miss rate for demand accesses
system.l2.demand_miss_rate::.switch_cpus.inst            1                       # miss rate for demand accesses
system.l2.demand_miss_rate::.switch_cpus.data     0.569473                       # miss rate for demand accesses
system.l2.demand_miss_rate::total            0.569503                       # miss rate for demand accesses
system.l2.overall_miss_rate::.cpu.inst              1                       # miss rate for overall accesses
system.l2.overall_miss_rate::.cpu.data              1                       # miss rate for overall accesses
system.l2.overall_miss_rate::.switch_cpus.inst            1                       # miss rate for overall accesses
system.l2.overall_miss_rate::.switch_cpus.data     0.569473                       # miss rate for overall accesses
system.l2.overall_miss_rate::total           0.569503                       # miss rate for overall accesses
system.l2.demand_avg_miss_latency::.switch_cpus.inst 83467.213115                       # average overall miss latency
system.l2.demand_avg_miss_latency::.switch_cpus.data 100441.238744                       # average overall miss latency
system.l2.demand_avg_miss_latency::total 100438.233692                       # average overall miss latency
system.l2.overall_avg_miss_latency::.switch_cpus.inst 83467.213115                       # average overall miss latency
system.l2.overall_avg_miss_latency::.switch_cpus.data 100441.238744                       # average overall miss latency
system.l2.overall_avg_miss_latency::total 100438.233692                       # average overall miss latency
system.l2.blocked_cycles::no_mshrs                  0                       # number of cycles access was blocked
system.l2.blocked_cycles::no_targets                0                       # number of cycles access was blocked
system.l2.blocked::no_mshrs                         0                       # number of cycles access was blocked
system.l2.blocked::no_targets                       0                       # number of cycles access was blocked
system.l2.avg_blocked_cycles::no_mshrs            nan                       # average number of cycles each access was blocked
system.l2.avg_blocked_cycles::no_targets          nan                       # average number of cycles each access was blocked
system.l2.unused_prefetches                        14                       # number of HardPF blocks evicted w/o reference
system.l2.writebacks::.writebacks               75971                       # number of writebacks
system.l2.writebacks::total                     75971                       # number of writebacks
system.l2.demand_mshr_misses::.switch_cpus.inst           61                       # number of demand (read+write) MSHR misses
system.l2.demand_mshr_misses::.switch_cpus.data       545036                       # number of demand (read+write) MSHR misses
system.l2.demand_mshr_misses::total            545097                       # number of demand (read+write) MSHR misses
system.l2.overall_mshr_misses::.l2.prefetcher           22                       # number of overall MSHR misses
system.l2.overall_mshr_misses::.switch_cpus.inst           61                       # number of overall MSHR misses
system.l2.overall_mshr_misses::.switch_cpus.data       545036                       # number of overall MSHR misses
system.l2.overall_mshr_misses::total           545119                       # number of overall MSHR misses
system.l2.demand_mshr_miss_latency::.switch_cpus.inst      4481500                       # number of demand (read+write) MSHR miss cycles
system.l2.demand_mshr_miss_latency::.switch_cpus.data  49293731000                       # number of demand (read+write) MSHR miss cycles
system.l2.demand_mshr_miss_latency::total  49298212500                       # number of demand (read+write) MSHR miss cycles
system.l2.overall_mshr_miss_latency::.l2.prefetcher      1930481                       # number of overall MSHR miss cycles
system.l2.overall_mshr_miss_latency::.switch_cpus.inst      4481500                       # number of overall MSHR miss cycles
system.l2.overall_mshr_miss_latency::.switch_cpus.data  49293731000                       # number of overall MSHR miss cycles
system.l2.overall_mshr_miss_latency::total  49300142981                       # number of overall MSHR miss cycles
system.l2.demand_mshr_miss_rate::.switch_cpus.inst            1                       # mshr miss rate for demand accesses
system.l2.demand_mshr_miss_rate::.switch_cpus.data     0.569473                       # mshr miss rate for demand accesses
system.l2.demand_mshr_miss_rate::total       0.569497                       # mshr miss rate for demand accesses
system.l2.overall_mshr_miss_rate::.l2.prefetcher          inf                       # mshr miss rate for overall accesses
system.l2.overall_mshr_miss_rate::.switch_cpus.inst            1                       # mshr miss rate for overall accesses
system.l2.overall_mshr_miss_rate::.switch_cpus.data     0.569473                       # mshr miss rate for overall accesses
system.l2.overall_mshr_miss_rate::total      0.569520                       # mshr miss rate for overall accesses
system.l2.demand_avg_mshr_miss_latency::.switch_cpus.inst 73467.213115                       # average overall mshr miss latency
system.l2.demand_avg_mshr_miss_latency::.switch_cpus.data 90441.238744                       # average overall mshr miss latency
system.l2.demand_avg_mshr_miss_latency::total 90439.339237                       # average overall mshr miss latency
system.l2.overall_avg_mshr_miss_latency::.l2.prefetcher 87749.136364                       # average overall mshr miss latency
system.l2.overall_avg_mshr_miss_latency::.switch_cpus.inst 73467.213115                       # average overall mshr miss latency
system.l2.overall_avg_mshr_miss_latency::.switch_cpus.data 90441.238744                       # average overall mshr miss latency
system.l2.overall_avg_mshr_miss_latency::total 90439.230665                       # average overall mshr miss latency
system.l2.replacements                         588673                       # number of replacements
system.l2.WritebackDirty_hits::.writebacks       276459                       # number of WritebackDirty hits
system.l2.WritebackDirty_hits::total           276459                       # number of WritebackDirty hits
system.l2.WritebackDirty_accesses::.writebacks       276459                       # number of WritebackDirty accesses(hits+misses)
system.l2.WritebackDirty_accesses::total       276459                       # number of WritebackDirty accesses(hits+misses)
system.l2.CleanEvict_mshr_misses::.writebacks       229112                       # number of CleanEvict MSHR misses
system.l2.CleanEvict_mshr_misses::total        229112                       # number of CleanEvict MSHR misses
system.l2.CleanEvict_mshr_miss_rate::.writebacks          inf                       # mshr miss rate for CleanEvict accesses
system.l2.CleanEvict_mshr_miss_rate::total          inf                       # mshr miss rate for CleanEvict accesses
system.l2.HardPFReq_mshr_misses::.l2.prefetcher           22                       # number of HardPFReq MSHR misses
system.l2.HardPFReq_mshr_misses::total             22                       # number of HardPFReq MSHR misses
system.l2.HardPFReq_mshr_miss_latency::.l2.prefetcher      1930481                       # number of HardPFReq MSHR miss cycles
system.l2.HardPFReq_mshr_miss_latency::total      1930481                       # number of HardPFReq MSHR miss cycles
system.l2.HardPFReq_mshr_miss_rate::.l2.prefetcher          inf                       # mshr miss rate for HardPFReq accesses
system.l2.HardPFReq_mshr_miss_rate::total          inf                       # mshr miss rate for HardPFReq accesses
system.l2.HardPFReq_avg_mshr_miss_latency::.l2.prefetcher 87749.136364                       # average HardPFReq mshr miss latency
system.l2.HardPFReq_avg_mshr_miss_latency::total 87749.136364                       # average HardPFReq mshr miss latency
system.l2.ReadExReq_hits::.switch_cpus.data        13885                       # number of ReadExReq hits
system.l2.ReadExReq_hits::total                 13885                       # number of ReadExReq hits
system.l2.ReadExReq_misses::.switch_cpus.data         6949                       # number of ReadExReq misses
system.l2.ReadExReq_misses::total                6949                       # number of ReadExReq misses
system.l2.ReadExReq_miss_latency::.switch_cpus.data    583172500                       # number of ReadExReq miss cycles
system.l2.ReadExReq_miss_latency::total     583172500                       # number of ReadExReq miss cycles
system.l2.ReadExReq_accesses::.switch_cpus.data        20834                       # number of ReadExReq accesses(hits+misses)
system.l2.ReadExReq_accesses::total             20834                       # number of ReadExReq accesses(hits+misses)
system.l2.ReadExReq_miss_rate::.switch_cpus.data     0.333541                       # miss rate for ReadExReq accesses
system.l2.ReadExReq_miss_rate::total         0.333541                       # miss rate for ReadExReq accesses
system.l2.ReadExReq_avg_miss_latency::.switch_cpus.data 83921.787308                       # average ReadExReq miss latency
system.l2.ReadExReq_avg_miss_latency::total 83921.787308                       # average ReadExReq miss latency
system.l2.ReadExReq_mshr_misses::.switch_cpus.data         6949                       # number of ReadExReq MSHR misses
system.l2.ReadExReq_mshr_misses::total           6949                       # number of ReadExReq MSHR misses
system.l2.ReadExReq_mshr_miss_latency::.switch_cpus.data    513682500                       # number of ReadExReq MSHR miss cycles
system.l2.ReadExReq_mshr_miss_latency::total    513682500                       # number of ReadExReq MSHR miss cycles
system.l2.ReadExReq_mshr_miss_rate::.switch_cpus.data     0.333541                       # mshr miss rate for ReadExReq accesses
system.l2.ReadExReq_mshr_miss_rate::total     0.333541                       # mshr miss rate for ReadExReq accesses
system.l2.ReadExReq_avg_mshr_miss_latency::.switch_cpus.data 73921.787308                       # average ReadExReq mshr miss latency
system.l2.ReadExReq_avg_mshr_miss_latency::total 73921.787308                       # average ReadExReq mshr miss latency
system.l2.ReadCleanReq_misses::.cpu.inst            1                       # number of ReadCleanReq misses
system.l2.ReadCleanReq_misses::.switch_cpus.inst           61                       # number of ReadCleanReq misses
system.l2.ReadCleanReq_misses::total               62                       # number of ReadCleanReq misses
system.l2.ReadCleanReq_miss_latency::.switch_cpus.inst      5091500                       # number of ReadCleanReq miss cycles
[...]
system.cpu.dtb.walker.pwrStateResidencyTicks::UNDEFINED 164706088728500                       # Cumulative time (in ticks) in various power states
system.cpu.interrupts.clk_domain.clock           8000                       # Clock period in ticks
system.cpu.itb_walker_cache.pwrStateResidencyTicks::UNDEFINED 164706088728500                       # Cumulative time (in ticks) in various power states
system.cpu.itb_walker_cache.blocked_cycles::no_mshrs            0                       # number of cycles access was blocked
system.cpu.itb_walker_cache.blocked_cycles::no_targets            0                       # number of cycles access was blocked
system.cpu.itb_walker_cache.blocked::no_mshrs            0                       # number of cycles access was blocked
system.cpu.itb_walker_cache.blocked::no_targets            0                       # number of cycles access was blocked
system.cpu.itb_walker_cache.avg_blocked_cycles::no_mshrs          nan                       # average number of cycles each access was blocked
system.cpu.itb_walker_cache.avg_blocked_cycles::no_targets          nan                       # average number of cycles each access was blocked
system.cpu.itb_walker_cache.replacements            0                       # number of replacements
system.cpu.itb_walker_cache.tags.pwrStateResidencyTicks::UNDEFINED 164706088728500                       # Cumulative time (in ticks) in various power states
system.cpu.itb_walker_cache.tags.tagsinuse            0                       # Cycle average of tags in use
system.cpu.itb_walker_cache.tags.total_refs            0                       # Total number of references to valid blocks.
system.cpu.itb_walker_cache.tags.sampled_refs            0                       # Sample count of references to valid blocks.
system.cpu.itb_walker_cache.tags.avg_refs          nan                       # Average number of references to valid blocks.
system.cpu.itb_walker_cache.tags.warmup_cycle            0                       # Cycle when the warmup percentage was hit.
system.cpu.itb_walker_cache.tags.tag_accesses            0                       # Number of tag accesses
system.cpu.itb_walker_cache.tags.data_accesses            0                       # Number of data accesses
system.cpu.itb.walker.pwrStateResidencyTicks::UNDEFINED 164706088728500                       # Cumulative time (in ticks) in various power states
system.cpu.dtb_walker_cache.pwrStateResidencyTicks::UNDEFINED 164706088728500                       # Cumulative time (in ticks) in various power states
system.cpu.dtb_walker_cache.blocked_cycles::no_mshrs            0                       # number of cycles access was blocked
system.cpu.dtb_walker_cache.blocked_cycles::no_targets            0                       # number of cycles access was blocked
system.cpu.dtb_walker_cache.blocked::no_mshrs            0                       # number of cycles access was blocked
system.cpu.dtb_walker_cache.blocked::no_targets            0                       # number of cycles access was blocked
system.cpu.dtb_walker_cache.avg_blocked_cycles::no_mshrs          nan                       # average number of cycles each access was blocked
system.cpu.dtb_walker_cache.avg_blocked_cycles::no_targets          nan                       # average number of cycles each access was blocked
system.cpu.dtb_walker_cache.replacements            0                       # number of replacements
system.cpu.dtb_walker_cache.tags.pwrStateResidencyTicks::UNDEFINED 164706088728500                       # Cumulative time (in ticks) in various power states
system.cpu.dtb_walker_cache.tags.tagsinuse            0                       # Cycle average of tags in use
system.cpu.dtb_walker_cache.tags.total_refs            0                       # Total number of references to valid blocks.
system.cpu.dtb_walker_cache.tags.sampled_refs            0                       # Sample count of references to valid blocks.
system.cpu.dtb_walker_cache.tags.avg_refs          nan                       # Average number of references to valid blocks.
system.cpu.dtb_walker_cache.tags.warmup_cycle            0                       # Cycle when the warmup percentage was hit.
system.cpu.dtb_walker_cache.tags.tag_accesses            0                       # Number of tag accesses
system.cpu.dtb_walker_cache.tags.data_accesses            0                       # Number of data accesses
system.cpu.dcache.pwrStateResidencyTicks::UNDEFINED 164706088728500                       # Cumulative time (in ticks) in various power states
system.cpu.dcache.demand_hits::.cpu.data            2                       # number of demand (read+write) hits
system.cpu.dcache.demand_hits::.switch_cpus.data     14305586                       # number of demand (read+write) hits
system.cpu.dcache.demand_hits::total         14305588                       # number of demand (read+write) hits
system.cpu.dcache.overall_hits::.cpu.data            2                       # number of overall hits
system.cpu.dcache.overall_hits::.switch_cpus.data     14305586                       # number of overall hits
system.cpu.dcache.overall_hits::total        14305588                       # number of overall hits
system.cpu.dcache.demand_misses::.cpu.data            5                       # number of demand (read+write) misses
system.cpu.dcache.demand_misses::.switch_cpus.data      8127744                       # number of demand (read+write) misses
system.cpu.dcache.demand_misses::total        8127749                       # number of demand (read+write) misses
system.cpu.dcache.overall_misses::.cpu.data            5                       # number of overall misses
system.cpu.dcache.overall_misses::.switch_cpus.data      8127744                       # number of overall misses
system.cpu.dcache.overall_misses::total       8127749                       # number of overall misses
system.cpu.dcache.demand_miss_latency::.switch_cpus.data 502024987461                       # number of demand (read+write) miss cycles
system.cpu.dcache.demand_miss_latency::total 502024987461                       # number of demand (read+write) miss cycles
system.cpu.dcache.overall_miss_latency::.switch_cpus.data 502024987461                       # number of overall miss cycles
system.cpu.dcache.overall_miss_latency::total 502024987461                       # number of overall miss cycles
system.cpu.dcache.demand_accesses::.cpu.data            7                       # number of demand (read+write) accesses
system.cpu.dcache.demand_accesses::.switch_cpus.data     22433330                       # number of demand (read+write) accesses
system.cpu.dcache.demand_accesses::total     22433337                       # number of demand (read+write) accesses
system.cpu.dcache.overall_accesses::.cpu.data            7                       # number of overall (read+write) accesses
system.cpu.dcache.overall_accesses::.switch_cpus.data     22433330                       # number of overall (read+write) accesses
system.cpu.dcache.overall_accesses::total     22433337                       # number of overall (read+write) accesses
system.cpu.dcache.demand_miss_rate::.cpu.data     0.714286                       # miss rate for demand accesses
system.cpu.dcache.demand_miss_rate::.switch_cpus.data     0.362307                       # miss rate for demand accesses
system.cpu.dcache.demand_miss_rate::total     0.362307                       # miss rate for demand accesses
system.cpu.dcache.overall_miss_rate::.cpu.data     0.714286                       # miss rate for overall accesses
system.cpu.dcache.overall_miss_rate::.switch_cpus.data     0.362307                       # miss rate for overall accesses
system.cpu.dcache.overall_miss_rate::total     0.362307                       # miss rate for overall accesses
system.cpu.dcache.demand_avg_miss_latency::.switch_cpus.data 61766.830680                       # average overall miss latency
system.cpu.dcache.demand_avg_miss_latency::total 61766.792683                       # average overall miss latency
system.cpu.dcache.overall_avg_miss_latency::.switch_cpus.data 61766.830680                       # average overall miss latency
system.cpu.dcache.overall_avg_miss_latency::total 61766.792683                       # average overall miss latency
system.cpu.dcache.blocked_cycles::no_mshrs     74317935                       # number of cycles access was blocked
system.cpu.dcache.blocked_cycles::no_targets         2688                       # number of cycles access was blocked
system.cpu.dcache.blocked::no_mshrs           2285024                       # number of cycles access was blocked
system.cpu.dcache.blocked::no_targets              52                       # number of cycles access was blocked
system.cpu.dcache.avg_blocked_cycles::no_mshrs    32.523919                       # average number of cycles each access was blocked
system.cpu.dcache.avg_blocked_cycles::no_targets    51.692308                       # average number of cycles each access was blocked
system.cpu.dcache.writebacks::.writebacks      1150259                       # number of writebacks
system.cpu.dcache.writebacks::total           1150259                       # number of writebacks
system.cpu.dcache.demand_mshr_hits::.switch_cpus.data      4368139                       # number of demand (read+write) MSHR hits
system.cpu.dcache.demand_mshr_hits::total      4368139                       # number of demand (read+write) MSHR hits
system.cpu.dcache.overall_mshr_hits::.switch_cpus.data      4368139                       # number of overall MSHR hits
system.cpu.dcache.overall_mshr_hits::total      4368139                       # number of overall MSHR hits
system.cpu.dcache.demand_mshr_misses::.switch_cpus.data      3759605                       # number of demand (read+write) MSHR misses
system.cpu.dcache.demand_mshr_misses::total      3759605                       # number of demand (read+write) MSHR misses
system.cpu.dcache.overall_mshr_misses::.switch_cpus.data      3759605                       # number of overall MSHR misses
system.cpu.dcache.overall_mshr_misses::total      3759605                       # number of overall MSHR misses
system.cpu.dcache.demand_mshr_miss_latency::.switch_cpus.data 237118885672                       # number of demand (read+write) MSHR miss cycles
system.cpu.dcache.demand_mshr_miss_latency::total 237118885672                       # number of demand (read+write) MSHR miss cycles
system.cpu.dcache.overall_mshr_miss_latency::.switch_cpus.data 237118885672                       # number of overall MSHR miss cycles
system.cpu.dcache.overall_mshr_miss_latency::total 237118885672                       # number of overall MSHR miss cycles
system.cpu.dcache.demand_mshr_miss_rate::.switch_cpus.data     0.167590                       # mshr miss rate for demand accesses
system.cpu.dcache.demand_mshr_miss_rate::total     0.167590                       # mshr miss rate for demand accesses
system.cpu.dcache.overall_mshr_miss_rate::.switch_cpus.data     0.167590                       # mshr miss rate for overall accesses
system.cpu.dcache.overall_mshr_miss_rate::total     0.167590                       # mshr miss rate for overall accesses
system.cpu.dcache.demand_avg_mshr_miss_latency::.switch_cpus.data 63070.159145                       # average overall mshr miss latency
system.cpu.dcache.demand_avg_mshr_miss_latency::total 63070.159145                       # average overall mshr miss latency
system.cpu.dcache.overall_avg_mshr_miss_latency::.switch_cpus.data 63070.159145                       # average overall mshr miss latency
system.cpu.dcache.overall_avg_mshr_miss_latency::total 63070.159145                       # average overall mshr miss latency
system.cpu.dcache.replacements                3758584                       # number of replacements
system.cpu.dcache.ReadReq_hits::.switch_cpus.data     11829837                       # number of ReadReq hits
system.cpu.dcache.ReadReq_hits::total        11829837                       # number of ReadReq hits
system.cpu.dcache.ReadReq_misses::.cpu.data            5                       # number of ReadReq misses
system.cpu.dcache.ReadReq_misses::.switch_cpus.data      8037220                       # number of ReadReq misses
system.cpu.dcache.ReadReq_misses::total       8037225                       # number of ReadReq misses
system.cpu.dcache.ReadReq_miss_latency::.switch_cpus.data 498821440500                       # number of ReadReq miss cycles
system.cpu.dcache.ReadReq_miss_latency::total 498821440500                       # number of ReadReq miss cycles
system.cpu.dcache.ReadReq_accesses::.cpu.data            5                       # number of ReadReq accesses(hits+misses)
system.cpu.dcache.ReadReq_accesses::.switch_cpus.data     19867057                       # number of ReadReq accesses(hits+misses)
system.cpu.dcache.ReadReq_accesses::total     19867062                       # number of ReadReq accesses(hits+misses)
system.cpu.dcache.ReadReq_miss_rate::.cpu.data            1                       # miss rate for ReadReq accesses
system.cpu.dcache.ReadReq_miss_rate::.switch_cpus.data     0.404550                       # miss rate for ReadReq accesses
system.cpu.dcache.ReadReq_miss_rate::total     0.404550                       # miss rate for ReadReq accesses
system.cpu.dcache.ReadReq_avg_miss_latency::.switch_cpus.data 62063.927639                       # average ReadReq miss latency
system.cpu.dcache.ReadReq_avg_miss_latency::total 62063.889029                       # average ReadReq miss latency
system.cpu.dcache.ReadReq_mshr_hits::.switch_cpus.data      4366377                       # number of ReadReq MSHR hits
system.cpu.dcache.ReadReq_mshr_hits::total      4366377                       # number of ReadReq MSHR hits
system.cpu.dcache.ReadReq_mshr_misses::.switch_cpus.data      3670843                       # number of ReadReq MSHR misses
system.cpu.dcache.ReadReq_mshr_misses::total      3670843                       # number of ReadReq MSHR misses
system.cpu.dcache.ReadReq_mshr_miss_latency::.switch_cpus.data 234029244500                       # number of ReadReq MSHR miss cycles
system.cpu.dcache.ReadReq_mshr_miss_latency::total 234029244500                       # number of ReadReq MSHR miss cycles
system.cpu.dcache.ReadReq_mshr_miss_rate::.switch_cpus.data     0.184770                       # mshr miss rate for ReadReq accesses
system.cpu.dcache.ReadReq_mshr_miss_rate::total     0.184770                       # mshr miss rate for ReadReq accesses
system.cpu.dcache.ReadReq_avg_mshr_miss_latency::.switch_cpus.data 63753.542306                       # average ReadReq mshr miss latency
system.cpu.dcache.ReadReq_avg_mshr_miss_latency::total 63753.542306                       # average ReadReq mshr miss latency
system.cpu.dcache.WriteReq_hits::.cpu.data            2                       # number of WriteReq hits
system.cpu.dcache.WriteReq_hits::.switch_cpus.data      2475749                       # number of WriteReq hits
system.cpu.dcache.WriteReq_hits::total        2475751                       # number of WriteReq hits
system.cpu.dcache.WriteReq_misses::.switch_cpus.data        90524                       # number of WriteReq misses
system.cpu.dcache.WriteReq_misses::total        90524                       # number of WriteReq misses
system.cpu.dcache.WriteReq_miss_latency::.switch_cpus.data   3203546961                       # number of WriteReq miss cycles
system.cpu.dcache.WriteReq_miss_latency::total   3203546961                       # number of WriteReq miss cycles
system.cpu.dcache.WriteReq_accesses::.cpu.data            2                       # number of WriteReq accesses(hits+misses)
system.cpu.dcache.WriteReq_accesses::.switch_cpus.data      2566273                       # number of WriteReq accesses(hits+misses)
system.cpu.dcache.WriteReq_accesses::total      2566275                       # number of WriteReq accesses(hits+misses)
system.cpu.dcache.WriteReq_miss_rate::.switch_cpus.data     0.035275                       # miss rate for WriteReq accesses
system.cpu.dcache.WriteReq_miss_rate::total     0.035274                       # miss rate for WriteReq accesses
system.cpu.dcache.WriteReq_avg_miss_latency::.switch_cpus.data 35388.924053                       # average WriteReq miss latency
system.cpu.dcache.WriteReq_avg_miss_latency::total 35388.924053                       # average WriteReq miss latency
system.cpu.dcache.WriteReq_mshr_hits::.switch_cpus.data         1762                       # number of WriteReq MSHR hits
system.cpu.dcache.WriteReq_mshr_hits::total         1762                       # number of WriteReq MSHR hits
system.cpu.dcache.WriteReq_mshr_misses::.switch_cpus.data        88762                       # number of WriteReq MSHR misses
system.cpu.dcache.WriteReq_mshr_misses::total        88762                       # number of WriteReq MSHR misses
system.cpu.dcache.WriteReq_mshr_miss_latency::.switch_cpus.data   3089641172                       # number of WriteReq MSHR miss cycles
system.cpu.dcache.WriteReq_mshr_miss_latency::total   3089641172                       # number of WriteReq MSHR miss cycles
system.cpu.dcache.WriteReq_mshr_miss_rate::.switch_cpus.data     0.034588                       # mshr miss rate for WriteReq accesses
system.cpu.dcache.WriteReq_mshr_miss_rate::total     0.034588                       # mshr miss rate for WriteReq accesses
system.cpu.dcache.WriteReq_avg_mshr_miss_latency::.switch_cpus.data 34808.151822                       # average WriteReq mshr miss latency
system.cpu.dcache.WriteReq_avg_mshr_miss_latency::total 34808.151822                       # average WriteReq mshr miss latency
system.cpu.dcache.tags.pwrStateResidencyTicks::UNDEFINED 164706088728500                       # Cumulative time (in ticks) in various power states
system.cpu.dcache.tags.tagsinuse             0.630675                       # Cycle average of tags in use
system.cpu.dcache.tags.total_refs            18065196                       # Total number of references to valid blocks.
system.cpu.dcache.tags.sampled_refs           3759608                       # Sample count of references to valid blocks.
system.cpu.dcache.tags.avg_refs              4.805074                       # Average number of references to valid blocks.
system.cpu.dcache.tags.warmup_cycle      164604626644500                       # Cycle when the warmup percentage was hit.
system.cpu.dcache.tags.occ_blocks::.cpu.data     0.000002                       # Average occupied blocks per requestor
system.cpu.dcache.tags.occ_blocks::.switch_cpus.data     0.630673                       # Average occupied blocks per requestor
system.cpu.dcache.tags.occ_percent::.cpu.data     0.000000                       # Average percentage of cache occupancy
system.cpu.dcache.tags.occ_percent::.switch_cpus.data     0.000616                       # Average percentage of cache occupancy
system.cpu.dcache.tags.occ_percent::total     0.000616                       # Average percentage of cache occupancy
system.cpu.dcache.tags.occ_task_id_blocks::1024         1024                       # Occupied blocks per task id
system.cpu.dcache.tags.age_task_id_blocks_1024::0          245                       # Occupied blocks per task id
system.cpu.dcache.tags.age_task_id_blocks_1024::1          750                       # Occupied blocks per task id
system.cpu.dcache.tags.age_task_id_blocks_1024::2           29                       # Occupied blocks per task id
system.cpu.dcache.tags.occ_task_id_percent::1024            1                       # Percentage of cache occupancy per task id
system.cpu.dcache.tags.tag_accesses          48626282                       # Number of tag accesses
system.cpu.dcache.tags.data_accesses         48626282                       # Number of data accesses

---------- End Simulation Statistics   ----------
