
---------- Begin Simulation Statistics ----------
final_tick                               190187779151000                       # Number of ticks from beginning of simulation (restored from checkpoints and never reset)
host_inst_rate                                  26938                       # Simulator instruction rate (inst/s)
host_mem_usage                                 827456                       # Number of bytes of host memory used
host_op_rate                                    47315                       # Simulator op (including micro ops) rate (op/s)
host_seconds                                   371.22                       # Real time elapsed on the host
host_tick_rate                              100330416                       # Simulator tick rate (ticks/s)
sim_freq                                 1000000000000                       # Frequency of simulated ticks
sim_insts                                    10000010                       # Number of instructions simulated
sim_ops                                      17564243                       # Number of ops (including micro ops) simulated
sim_seconds                                  0.037245                       # Number of seconds simulated
sim_ticks                                 37244882250                       # Number of ticks simulated
system.cpu.Branches                                 4                       # Number of branches fetched
system.cpu.committedInsts                          10                       # Number of instructions committed
system.cpu.committedOps                            20                       # Number of ops (including micro ops) committed
system.cpu.dtb.rdAccesses                           2                       # TLB accesses on read requests
system.cpu.dtb.rdMisses                             1                       # TLB misses on read requests
system.cpu.dtb.wrAccesses                           0                       # TLB accesses on write requests
system.cpu.dtb.wrMisses                             0                       # TLB misses on write requests
system.cpu.idle_fraction                            0                       # Percentage of idle cycles
system.cpu.itb.rdAccesses                           0                       # TLB accesses on read requests
system.cpu.itb.rdMisses                             0                       # TLB misses on read requests
system.cpu.itb.wrAccesses                          12                       # TLB accesses on write requests
system.cpu.itb.wrMisses                             0                       # TLB misses on write requests
system.cpu.not_idle_fraction                        1                       # Percentage of non-idle cycles
system.cpu.numCycles                               22                       # number of cpu cycles simulated
system.cpu.numWorkItemsCompleted                    0                       # number of work items this cpu completed
system.cpu.numWorkItemsStarted                      0                       # number of work items this cpu started
system.cpu.num_busy_cycles                         22                       # Number of busy cycles
system.cpu.num_cc_register_reads                   21                       # number of times the CC registers were read
system.cpu.num_cc_register_writes                  10                       # number of times the CC registers were written
system.cpu.num_conditional_control_insts            4                       # number of instructions that are conditional controls
system.cpu.num_fp_alu_accesses                      0                       # Number of float alu accesses
system.cpu.num_fp_insts                             0                       # number of float instructions
system.cpu.num_fp_register_reads                    0                       # number of times the floating registers were read
system.cpu.num_fp_register_writes                   0                       # number of times the floating registers were written
system.cpu.num_func_calls                           0                       # number of times a function call or return occured
system.cpu.num_idle_cycles                          0                       # Number of idle cycles
system.cpu.num_int_alu_accesses                    20                       # Number of integer alu accesses
system.cpu.num_int_insts                           20                       # number of integer instructions
system.cpu.num_int_register_reads                  32                       # number of times the integer registers were read
system.cpu.num_int_register_writes                 16                       # number of times the integer registers were written
system.cpu.num_load_insts                           2                       # Number of load instructions
system.cpu.num_mem_refs                             2                       # number of memory refs
system.cpu.num_store_insts                          0                       # Number of store instructions
system.cpu.num_vec_alu_accesses                     0                       # Number of vector alu accesses
system.cpu.num_vec_insts                            0                       # number of vector instructions
system.cpu.num_vec_register_reads                   0                       # number of times the vector registers were read
system.cpu.num_vec_register_writes                  0                       # number of times the vector registers were written
system.cpu.op_class::No_OpClass                     0      0.00%      0.00% # Class of executed instruction
system.cpu.op_class::IntAlu                        18     90.00%     90.00% # Class of executed instruction
system.cpu.op_class::IntMult                        0      0.00%     90.00% # Class of executed instruction
system.cpu.op_class::IntDiv                         0      0.00%     90.00% # Class of executed instruction
system.cpu.op_class::FloatAdd                       0      0.00%     90.00% # Class of executed instruction
system.cpu.op_class::FloatCmp                       0      0.00%     90.00% # Class of executed instruction
system.cpu.op_class::FloatCvt                       0      0.00%     90.00% # Class of executed instruction
system.cpu.op_class::FloatMult                      0      0.00%     90.00% # Class of executed instruction
system.cpu.op_class::FloatMultAcc                   0      0.00%     90.00% # Class of executed instruction
system.cpu.op_class::FloatDiv                       0      0.00%     90.00% # Class of executed instruction
system.cpu.op_class::FloatMisc                      0      0.00%     90.00% # Class of executed instruction
system.cpu.op_class::FloatSqrt                      0      0.00%     90.00% # Class of executed instruction
system.cpu.op_class::SimdAdd                        0      0.00%     90.00% # Class of executed instruction
system.cpu.op_class::SimdAddAcc                     0      0.00%     90.00% # Class of executed instruction
system.cpu.op_class::SimdAlu                        0      0.00%     90.00% # Class of executed instruction
system.cpu.op_class::SimdCmp                        0      0.00%     90.00% # Class of executed instruction
system.cpu.op_class::SimdCvt                        0      0.00%     90.00% # Class of executed instruction
system.cpu.op_class::SimdMisc                       0      0.00%     90.00% # Class of executed instruction
system.cpu.op_class::SimdMult                       0      0.00%     90.00% # Class of executed instruction
system.cpu.op_class::SimdMultAcc                    0      0.00%     90.00% # Class of executed instruction
system.cpu.op_class::SimdShift                      0      0.00%     90.00% # Class of executed instruction
system.cpu.op_class::SimdShiftAcc                   0      0.00%     90.00% # Class of executed instruction
system.cpu.op_class::SimdDiv                        0      0.00%     90.00% # Class of executed instruction
system.cpu.op_class::SimdSqrt                       0      0.00%     90.00% # Class of executed instruction
system.cpu.op_class::SimdFloatAdd                   0      0.00%     90.00% # Class of executed instruction
system.cpu.op_class::SimdFloatAlu                   0      0.00%     90.00% # Class of executed instruction
system.cpu.op_class::SimdFloatCmp                   0      0.00%     90.00% # Class of executed instruction
system.cpu.op_class::SimdFloatCvt                   0      0.00%     90.00% # Class of executed instruction
system.cpu.op_class::SimdFloatDiv                   0      0.00%     90.00% # Class of executed instruction
system.cpu.op_class::SimdFloatMisc                  0      0.00%     90.00% # Class of executed instruction
system.cpu.op_class::SimdFloatMult                  0      0.00%     90.00% # Class of executed instruction
system.cpu.op_class::SimdFloatMultAcc               0      0.00%     90.00% # Class of executed instruction
system.cpu.op_class::SimdFloatSqrt                  0      0.00%     90.00% # Class of executed instruction
system.cpu.op_class::SimdReduceAdd                  0      0.00%     90.00% # Class of executed instruction
system.cpu.op_class::SimdReduceAlu                  0      0.00%     90.00% # Class of executed instruction
system.cpu.op_class::SimdReduceCmp                  0      0.00%     90.00% # Class of executed instruction
system.cpu.op_class::SimdFloatReduceAdd             0      0.00%     90.00% # Class of executed instruction
system.cpu.op_class::SimdFloatReduceCmp             0      0.00%     90.00% # Class of executed instruction
system.cpu.op_class::SimdAes                        0      0.00%     90.00% # Class of executed instruction
system.cpu.op_class::SimdAesMix                     0      0.00%     90.00% # Class of executed instruction
system.cpu.op_class::SimdSha1Hash                   0      0.00%     90.00% # Class of executed instruction
system.cpu.op_class::SimdSha1Hash2                  0      0.00%     90.00% # Class of executed instruction
system.cpu.op_class::SimdSha256Hash                 0      0.00%     90.00% # Class of executed instruction
system.cpu.op_class::SimdSha256Hash2                0      0.00%     90.00% # Class of executed instruction
system.cpu.op_class::SimdShaSigma2                  0      0.00%     90.00% # Class of executed instruction
system.cpu.op_class::SimdShaSigma3                  0      0.00%     90.00% # Class of executed instruction
system.cpu.op_class::SimdPredAlu                    0      0.00%     90.00% # Class of executed instruction
system.cpu.op_class::MemRead                        2     10.00%    100.00% # Class of executed instruction
system.cpu.op_class::MemWrite                       0      0.00%    100.00% # Class of executed instruction
system.cpu.op_class::FloatMemRead                   0      0.00%    100.00% # Class of executed instruction
system.cpu.op_class::FloatMemWrite                  0      0.00%    100.00% # Class of executed instruction
system.cpu.op_class::IprAccess                      0      0.00%    100.00% # Class of executed instruction
system.cpu.op_class::InstPrefetch                   0      0.00%    100.00% # Class of executed instruction
system.cpu.op_class::total                         20                       # Class of executed instruction
system.cpu.workload.numSyscalls                     0                       # Number of system calls
system.membus.snoop_filter.hit_multi_requests            0                       # Number of requests hitting in the snoop filter with multiple (>1) holders of the requested data.
system.membus.snoop_filter.hit_multi_snoops            0                       # Number of snoops hitting in the snoop filter with multiple (>1) holders of the requested data.
system.membus.snoop_filter.hit_single_requests      1200211                       # Number of requests hitting in the snoop filter with a single holder of the requested data.
system.membus.snoop_filter.hit_single_snoops            0                       # Number of snoops hitting in the snoop filter with a single holder of the requested data.
system.membus.snoop_filter.tot_requests       2402602                       # Total number of requests made to the snoop filter.
system.membus.snoop_filter.tot_snoops               0                       # Total number of snoops made to the snoop filter.
system.switch_cpus.branchPred.BTBCorrect            0                       # Number of correct BTB predictions (this stat may not work properly.
system.switch_cpus.branchPred.BTBHitPct      0.000000                       # BTB Hit Percentage
system.switch_cpus.branchPred.BTBHits               0                       # Number of BTB hits
system.switch_cpus.branchPred.BTBLookups      3111295                       # Number of BTB lookups
system.switch_cpus.branchPred.RASInCorrect            1                       # Number of incorrect RAS predictions.
system.switch_cpus.branchPred.condIncorrect       176305                       # Number of conditional branches incorrect
system.switch_cpus.branchPred.condPredicted      4245947                       # Number of conditional branches predicted
system.switch_cpus.branchPred.indirectHits      1899195                       # Number of indirect target hits.
system.switch_cpus.branchPred.indirectLookups      3111295                       # Number of indirect predictor lookups.
system.switch_cpus.branchPred.indirectMisses      1212100                       # Number of indirect misses.
system.switch_cpus.branchPred.lookups         4305063                       # Number of BP lookups
system.switch_cpus.branchPred.usedRAS           32716                       # Number of times the RAS was used to get a target.
system.switch_cpus.branchPredindirectMispredicted       117736                       # Number of mispredicted indirect branches.
system.switch_cpus.cc_regfile_reads          15731639                       # number of cc regfile reads
system.switch_cpus.cc_regfile_writes          9262904                       # number of cc regfile writes
system.switch_cpus.commit.amos                      0                       # Number of atomic instructions committed
system.switch_cpus.commit.branchMispredicts       176325                       # The number of times a branch was mispredicted
system.switch_cpus.commit.branches            2713376                       # Number of branches committed
system.switch_cpus.commit.bw_lim_events       1327132                       # number cycles where commit BW limit reached
system.switch_cpus.commit.commitSquashedInsts      6749318                       # The number of squashed insts skipped by commit
system.switch_cpus.commit.committedInsts     10000000                       # Number of instructions committed
system.switch_cpus.commit.committedOps       17564223                       # Number of ops (including micro ops) committed
system.switch_cpus.commit.committed_per_cycle::samples     73443902                       # Number of insts commited each cycle
system.switch_cpus.commit.committed_per_cycle::mean     0.239152                       # Number of insts commited each cycle
system.switch_cpus.commit.committed_per_cycle::stdev     1.177785                       # Number of insts commited each cycle
system.switch_cpus.commit.committed_per_cycle::underflows            0      0.00%      0.00% # Number of insts commited each cycle
system.switch_cpus.commit.committed_per_cycle::0     69074141     94.05%     94.05% # Number of insts commited each cycle
system.switch_cpus.commit.committed_per_cycle::1      1172197      1.60%     95.65% # Number of insts commited each cycle
system.switch_cpus.commit.committed_per_cycle::2       532368      0.72%     96.37% # Number of insts commited each cycle
system.switch_cpus.commit.committed_per_cycle::3       966339      1.32%     97.69% # Number of insts commited each cycle
system.switch_cpus.commit.committed_per_cycle::4       155174      0.21%     97.90% # Number of insts commited each cycle
system.switch_cpus.commit.committed_per_cycle::5       140357      0.19%     98.09% # Number of insts commited each cycle
system.switch_cpus.commit.committed_per_cycle::6        44622      0.06%     98.15% # Number of insts commited each cycle
system.switch_cpus.commit.committed_per_cycle::7        31572      0.04%     98.19% # Number of insts commited each cycle
system.switch_cpus.commit.committed_per_cycle::8      1327132      1.81%    100.00% # Number of insts commited each cycle
system.switch_cpus.commit.committed_per_cycle::overflows            0      0.00%    100.00% # Number of insts commited each cycle
system.switch_cpus.commit.committed_per_cycle::min_value            0                       # Number of insts commited each cycle
system.switch_cpus.commit.committed_per_cycle::max_value            8                       # Number of insts commited each cycle
system.switch_cpus.commit.committed_per_cycle::total     73443902                       # Number of insts commited each cycle
system.switch_cpus.commit.fp_insts                  0                       # Number of committed floating point instructions.
system.switch_cpus.commit.function_calls         2082                       # Number of function calls committed.
system.switch_cpus.commit.int_insts          17541010                       # Number of committed integer instructions.
system.switch_cpus.commit.loads               3923977                       # Number of loads committed
system.switch_cpus.commit.membars                   0                       # Number of memory barriers committed
system.switch_cpus.commit.op_class_0::No_OpClass        20038      0.11%      0.11% # Class of committed instruction
system.switch_cpus.commit.op_class_0::IntAlu     13353407     76.03%     76.14% # Class of committed instruction
system.switch_cpus.commit.op_class_0::IntMult          330      0.00%     76.14% # Class of committed instruction
system.switch_cpus.commit.op_class_0::IntDiv            0      0.00%     76.14% # Class of committed instruction
system.switch_cpus.commit.op_class_0::FloatAdd            0      0.00%     76.14% # Class of committed instruction
system.switch_cpus.commit.op_class_0::FloatCmp            0      0.00%     76.14% # Class of committed instruction
system.switch_cpus.commit.op_class_0::FloatCvt            0      0.00%     76.14% # Class of committed instruction
system.switch_cpus.commit.op_class_0::FloatMult            0      0.00%     76.14% # Class of committed instruction
system.switch_cpus.commit.op_class_0::FloatMultAcc            0      0.00%     76.14% # Class of committed instruction
system.switch_cpus.commit.op_class_0::FloatDiv            0      0.00%     76.14% # Class of committed instruction
system.switch_cpus.commit.op_class_0::FloatMisc            0      0.00%     76.14% # Class of committed instruction
system.switch_cpus.commit.op_class_0::FloatSqrt            0      0.00%     76.14% # Class of committed instruction
system.switch_cpus.commit.op_class_0::SimdAdd            0      0.00%     76.14% # Class of committed instruction
system.switch_cpus.commit.op_class_0::SimdAddAcc            0      0.00%     76.14% # Class of committed instruction
system.switch_cpus.commit.op_class_0::SimdAlu            0      0.00%     76.14% # Class of committed instruction
system.switch_cpus.commit.op_class_0::SimdCmp            0      0.00%     76.14% # Class of committed instruction
system.switch_cpus.commit.op_class_0::SimdCvt            0      0.00%     76.14% # Class of committed instruction
system.switch_cpus.commit.op_class_0::SimdMisc            0      0.00%     76.14% # Class of committed instruction
system.switch_cpus.commit.op_class_0::SimdMult            0      0.00%     76.14% # Class of committed instruction
system.switch_cpus.commit.op_class_0::SimdMultAcc            0      0.00%     76.14% # Class of committed instruction
system.switch_cpus.commit.op_class_0::SimdShift            0      0.00%     76.14% # Class of committed instruction
system.switch_cpus.commit.op_class_0::SimdShiftAcc            0      0.00%     76.14% # Class of committed instruction
system.switch_cpus.commit.op_class_0::SimdDiv            0      0.00%     76.14% # Class of committed instruction
system.switch_cpus.commit.op_class_0::SimdSqrt            0      0.00%     76.14% # Class of committed instruction
system.switch_cpus.commit.op_class_0::SimdFloatAdd            0      0.00%     76.14% # Class of committed instruction
system.switch_cpus.commit.op_class_0::SimdFloatAlu            0      0.00%     76.14% # Class of committed instruction
system.switch_cpus.commit.op_class_0::SimdFloatCmp            0      0.00%     76.14% # Class of committed instruction
system.switch_cpus.commit.op_class_0::SimdFloatCvt            0      0.00%     76.14% # Class of committed instruction
system.switch_cpus.commit.op_class_0::SimdFloatDiv            0      0.00%     76.14% # Class of committed instruction
system.switch_cpus.commit.op_class_0::SimdFloatMisc            0      0.00%     76.14% # Class of committed instruction
system.switch_cpus.commit.op_class_0::SimdFloatMult            0      0.00%     76.14% # Class of committed instruction
system.switch_cpus.commit.op_class_0::SimdFloatMultAcc            0      0.00%     76.14% # Class of committed instruction
system.switch_cpus.commit.op_class_0::SimdFloatSqrt            0      0.00%     76.14% # Class of committed instruction
system.switch_cpus.commit.op_class_0::SimdReduceAdd            0      0.00%     76.14% # Class of committed instruction
system.switch_cpus.commit.op_class_0::SimdReduceAlu            0      0.00%     76.14% # Class of committed instruction
system.switch_cpus.commit.op_class_0::SimdReduceCmp            0      0.00%     76.14% # Class of committed instruction
system.switch_cpus.commit.op_class_0::SimdFloatReduceAdd            0      0.00%     76.14% # Class of committed instruction
system.switch_cpus.commit.op_class_0::SimdFloatReduceCmp            0      0.00%     76.14% # Class of committed instruction
system.switch_cpus.commit.op_class_0::SimdAes            0      0.00%     76.14% # Class of committed instruction
system.switch_cpus.commit.op_class_0::SimdAesMix            0      0.00%     76.14% # Class of committed instruction
system.switch_cpus.commit.op_class_0::SimdSha1Hash            0      0.00%     76.14% # Class of committed instruction
system.switch_cpus.commit.op_class_0::SimdSha1Hash2            0      0.00%     76.14% # Class of committed instruction
system.switch_cpus.commit.op_class_0::SimdSha256Hash            0      0.00%     76.14% # Class of committed instruction
system.switch_cpus.commit.op_class_0::SimdSha256Hash2            0      0.00%     76.14% # Class of committed instruction
system.switch_cpus.commit.op_class_0::SimdShaSigma2            0      0.00%     76.14% # Class of committed instruction
system.switch_cpus.commit.op_class_0::SimdShaSigma3            0      0.00%     76.14% # Class of committed instruction
system.switch_cpus.commit.op_class_0::SimdPredAlu            0      0.00%     76.14% # Class of committed instruction
system.switch_cpus.commit.op_class_0::MemRead      3923977     22.34%     98.48% # Class of committed instruction
system.switch_cpus.commit.op_class_0::MemWrite       266471      1.52%    100.00% # Class of committed instruction
system.switch_cpus.commit.op_class_0::FloatMemRead            0      0.00%    100.00% # Class of committed instruction
system.switch_cpus.commit.op_class_0::FloatMemWrite            0      0.00%    100.00% # Class of committed instruction
system.switch_cpus.commit.op_class_0::IprAccess            0      0.00%    100.00% # Class of committed instruction
system.switch_cpus.commit.op_class_0::InstPrefetch            0      0.00%    100.00% # Class of committed instruction
system.switch_cpus.commit.op_class_0::total     17564223                       # Class of committed instruction
system.switch_cpus.commit.refs                4190448                       # Number of memory references committed
system.switch_cpus.commit.swp_count                 0                       # Number of s/w prefetches committed
system.switch_cpus.commit.vec_insts                 0                       # Number of committed Vector instructions.
system.switch_cpus.committedInsts            10000000                       # Number of Instructions Simulated
system.switch_cpus.committedOps              17564223                       # Number of Ops (including micro ops) Simulated
system.switch_cpus.cpi                       7.448974                       # CPI: Cycles Per Instruction
system.switch_cpus.cpi_total                 7.448974                       # CPI: Total CPI of All Threads
system.switch_cpus.decode.BlockedCycles      69453426                       # Number of cycles decode is blocked
system.switch_cpus.decode.DecodedInsts       26640909                       # Number of instructions handled by decode
system.switch_cpus.decode.IdleCycles          1266414                       # Number of cycles decode is idle
system.switch_cpus.decode.RunCycles           1917750                       # Number of cycles decode is running
system.switch_cpus.decode.SquashCycles         176579                       # Number of cycles decode is squashing
system.switch_cpus.decode.UnblockCycles       1671206                       # Number of cycles decode is unblocking
system.switch_cpus.dtb.rdAccesses             4628650                       # TLB accesses on read requests
system.switch_cpus.dtb.rdMisses               1391229                       # TLB misses on read requests
system.switch_cpus.dtb.wrAccesses              390808                       # TLB accesses on write requests
system.switch_cpus.dtb.wrMisses                  9919                       # TLB misses on write requests
system.switch_cpus.fetch.Branches             4305063                       # Number of branches that fetch encountered
system.switch_cpus.fetch.CacheLines            906508                       # Number of cache lines fetched
system.switch_cpus.fetch.Cycles              73303619                       # Number of cycles fetch has run and was not squashing or blocked
system.switch_cpus.fetch.IcacheSquashes         34400                       # Number of outstanding Icache misses that were squashed
system.switch_cpus.fetch.Insts               16863574                       # Number of instructions fetch has processed
system.switch_cpus.fetch.MiscStallCycles           20                       # Number of cycles fetch has spent waiting on interrupts, or bad addresses, or out of MSHRs
system.switch_cpus.fetch.PendingTrapStallCycles          195                       # Number of stall cycles due to pending traps
system.switch_cpus.fetch.SquashCycles          353158                       # Number of cycles fetch has spent squashing
system.switch_cpus.fetch.branchRate          0.057794                       # Number of branch fetches per cycle
system.switch_cpus.fetch.icacheStallCycles      1004969                       # Number of cycles fetch is stalled on an Icache miss
system.switch_cpus.fetch.predictedBranches      1931911                       # Number of branches that fetch has predicted taken
system.switch_cpus.fetch.rate                0.226388                       # Number of inst fetches per cycle
system.switch_cpus.fetch.rateDist::samples     74485382                       # Number of instructions fetched each cycle (Total)
system.switch_cpus.fetch.rateDist::mean      0.393920                       # Number of instructions fetched each cycle (Total)
system.switch_cpus.fetch.rateDist::stdev     1.582222                       # Number of instructions fetched each cycle (Total)
system.switch_cpus.fetch.rateDist::underflows            0      0.00%      0.00% # Number of instructions fetched each cycle (Total)
system.switch_cpus.fetch.rateDist::0         69420749     93.20%     93.20% # Number of instructions fetched each cycle (Total)
system.switch_cpus.fetch.rateDist::1           309905      0.42%     93.62% # Number of instructions fetched each cycle (Total)
system.switch_cpus.fetch.rateDist::2           322225      0.43%     94.05% # Number of instructions fetched each cycle (Total)
system.switch_cpus.fetch.rateDist::3           348570      0.47%     94.52% # Number of instructions fetched each cycle (Total)
system.switch_cpus.fetch.rateDist::4           538278      0.72%     95.24% # Number of instructions fetched each cycle (Total)
system.switch_cpus.fetch.rateDist::5           821787      1.10%     96.34% # Number of instructions fetched each cycle (Total)
system.switch_cpus.fetch.rateDist::6           241190      0.32%     96.67% # Number of instructions fetched each cycle (Total)
system.switch_cpus.fetch.rateDist::7           229360      0.31%     96.97% # Number of instructions fetched each cycle (Total)
system.switch_cpus.fetch.rateDist::8          2253318      3.03%    100.00% # Number of instructions fetched each cycle (Total)
system.switch_cpus.fetch.rateDist::overflows            0      0.00%    100.00% # Number of instructions fetched each cycle (Total)
system.switch_cpus.fetch.rateDist::min_value            0                       # Number of instructions fetched each cycle (Total)
system.switch_cpus.fetch.rateDist::max_value            8                       # Number of instructions fetched each cycle (Total)
system.switch_cpus.fetch.rateDist::total     74485382                       # Number of instructions fetched each cycle (Total)
system.switch_cpus.fp_regfile_writes               56                       # number of floating regfile writes
system.switch_cpus.idleCycles                    4360                       # Total number of cycles that the CPU has spent unscheduled due to idling
system.switch_cpus.iew.branchMispredicts       224457                       # Number of branch mispredicts detected at execute
system.switch_cpus.iew.exec_branches          3110425                       # Number of branches executed
system.switch_cpus.iew.exec_nop                     0                       # number of nop insts executed
system.switch_cpus.iew.exec_rate             0.477674                       # Inst execution rate
system.switch_cpus.iew.exec_refs             18831192                       # number of memory reference insts executed
system.switch_cpus.iew.exec_stores             390800                       # Number of stores executed
system.switch_cpus.iew.exec_swp                     0                       # number of swp insts executed
system.switch_cpus.iew.iewBlockCycles        21317429                       # Number of cycles IEW is blocking
system.switch_cpus.iew.iewDispLoadInsts       5137075                       # Number of dispatched load instructions
system.switch_cpus.iew.iewDispNonSpecInsts            0                       # Number of dispatched non-speculative instructions
system.switch_cpus.iew.iewDispSquashedInsts        28095                       # Number of squashed instructions skipped by dispatch
system.switch_cpus.iew.iewDispStoreInsts       584637                       # Number of dispatched store instructions
system.switch_cpus.iew.iewDispatchedInsts     24304676                       # Number of instructions dispatched to IQ
system.switch_cpus.iew.iewExecLoadInsts      18440392                       # Number of load instructions executed
system.switch_cpus.iew.iewExecSquashedInsts       379634                       # Number of squashed instructions skipped in execute
system.switch_cpus.iew.iewExecutedInsts      35581825                       # Number of executed instructions
system.switch_cpus.iew.iewIQFullEvents         285916                       # Number of times the IQ has become full, causing a stall
system.switch_cpus.iew.iewIdleCycles                0                       # Number of cycles IEW is idle
system.switch_cpus.iew.iewLSQFullEvents      13211183                       # Number of times the LSQ has become full, causing a stall
system.switch_cpus.iew.iewSquashCycles         176579                       # Number of cycles IEW is squashing
system.switch_cpus.iew.iewUnblockCycles      13732389                       # Number of cycles IEW is unblocking
system.switch_cpus.iew.lsq.thread0.blockedLoads            0                       # Number of blocked loads due to partial load-store forwarding
system.switch_cpus.iew.lsq.thread0.cacheBlocked      1251066                       # Number of times an access to memory failed due to the cache being blocked
system.switch_cpus.iew.lsq.thread0.forwLoads        45890                       # Number of loads that had data forwarded from stores
system.switch_cpus.iew.lsq.thread0.ignoredResponses          428                       # Number of memory responses ignored because the instruction is squashed
system.switch_cpus.iew.lsq.thread0.invAddrLoads            0                       # Number of loads ignored due to an invalid address
system.switch_cpus.iew.lsq.thread0.invAddrSwpfs            0                       # Number of software prefetches ignored due to an invalid address
system.switch_cpus.iew.lsq.thread0.memOrderViolation          756                       # Number of memory ordering violations
system.switch_cpus.iew.lsq.thread0.rescheduledLoads            0                       # Number of loads that were rescheduled
system.switch_cpus.iew.lsq.thread0.squashedLoads      1213069                       # Number of loads squashed
system.switch_cpus.iew.lsq.thread0.squashedStores       318166                       # Number of stores squashed
system.switch_cpus.iew.memOrderViolationEvents          756                       # Number of memory order violations
system.switch_cpus.iew.predictedNotTakenIncorrect       181954                       # Number of branches that were predicted not taken incorrectly
system.switch_cpus.iew.predictedTakenIncorrect        42503                       # Number of branches that were predicted taken incorrectly
system.switch_cpus.iew.wb_consumers          21920660                       # num instructions consuming a value
system.switch_cpus.iew.wb_count              21394358                       # cumulative count of insts written-back
system.switch_cpus.iew.wb_fanout             0.713118                       # average fanout of values written-back
system.switch_cpus.iew.wb_producers          15632022                       # num instructions producing a value
system.switch_cpus.iew.wb_rate               0.287212                       # insts written-back per cycle
system.switch_cpus.iew.wb_sent               21452195                       # cumulative count of insts sent to commit
system.switch_cpus.int_regfile_reads         55380730                       # number of integer regfile reads
system.switch_cpus.int_regfile_writes        17830067                       # number of integer regfile writes
system.switch_cpus.ipc                       0.134247                       # IPC: Instructions Per Cycle
system.switch_cpus.ipc_total                 0.134247                       # IPC: Total IPC of All Threads
system.switch_cpus.iq.FU_type_0::No_OpClass       100971      0.28%      0.28% # Type of FU issued
system.switch_cpus.iq.FU_type_0::IntAlu      16929167     47.08%     47.36% # Type of FU issued
system.switch_cpus.iq.FU_type_0::IntMult          522      0.00%     47.36% # Type of FU issued
system.switch_cpus.iq.FU_type_0::IntDiv             0      0.00%     47.36% # Type of FU issued
system.switch_cpus.iq.FU_type_0::FloatAdd            0      0.00%     47.36% # Type of FU issued
system.switch_cpus.iq.FU_type_0::FloatCmp            0      0.00%     47.36% # Type of FU issued
system.switch_cpus.iq.FU_type_0::FloatCvt            0      0.00%     47.36% # Type of FU issued
system.switch_cpus.iq.FU_type_0::FloatMult            0      0.00%     47.36% # Type of FU issued
system.switch_cpus.iq.FU_type_0::FloatMultAcc            0      0.00%     47.36% # Type of FU issued
system.switch_cpus.iq.FU_type_0::FloatDiv            0      0.00%     47.36% # Type of FU issued
system.switch_cpus.iq.FU_type_0::FloatMisc            0      0.00%     47.36% # Type of FU issued
system.switch_cpus.iq.FU_type_0::FloatSqrt            0      0.00%     47.36% # Type of FU issued
system.switch_cpus.iq.FU_type_0::SimdAdd            0      0.00%     47.36% # Type of FU issued
system.switch_cpus.iq.FU_type_0::SimdAddAcc            0      0.00%     47.36% # Type of FU issued
system.switch_cpus.iq.FU_type_0::SimdAlu            0      0.00%     47.36% # Type of FU issued
system.switch_cpus.iq.FU_type_0::SimdCmp            0      0.00%     47.36% # Type of FU issued
system.switch_cpus.iq.FU_type_0::SimdCvt            0      0.00%     47.36% # Type of FU issued
system.switch_cpus.iq.FU_type_0::SimdMisc            0      0.00%     47.36% # Type of FU issued
system.switch_cpus.iq.FU_type_0::SimdMult            0      0.00%     47.36% # Type of FU issued
system.switch_cpus.iq.FU_type_0::SimdMultAcc            0      0.00%     47.36% # Type of FU issued
system.switch_cpus.iq.FU_type_0::SimdShift            0      0.00%     47.36% # Type of FU issued
system.switch_cpus.iq.FU_type_0::SimdShiftAcc            0      0.00%     47.36% # Type of FU issued
system.switch_cpus.iq.FU_type_0::SimdDiv            0      0.00%     47.36% # Type of FU issued
system.switch_cpus.iq.FU_type_0::SimdSqrt            0      0.00%     47.36% # Type of FU issued
system.switch_cpus.iq.FU_type_0::SimdFloatAdd            0      0.00%     47.36% # Type of FU issued
system.switch_cpus.iq.FU_type_0::SimdFloatAlu            0      0.00%     47.36% # Type of FU issued
system.switch_cpus.iq.FU_type_0::SimdFloatCmp            0      0.00%     47.36% # Type of FU issued
system.switch_cpus.iq.FU_type_0::SimdFloatCvt            0      0.00%     47.36% # Type of FU issued
system.switch_cpus.iq.FU_type_0::SimdFloatDiv            0      0.00%     47.36% # Type of FU issued
system.switch_cpus.iq.FU_type_0::SimdFloatMisc            0      0.00%     47.36% # Type of FU issued
system.switch_cpus.iq.FU_type_0::SimdFloatMult            0      0.00%     47.36% # Type of FU issued
system.switch_cpus.iq.FU_type_0::SimdFloatMultAcc            0      0.00%     47.36% # Type of FU issued
system.switch_cpus.iq.FU_type_0::SimdFloatSqrt            0      0.00%     47.36% # Type of FU issued
system.switch_cpus.iq.FU_type_0::SimdReduceAdd            0      0.00%     47.36% # Type of FU issued
system.switch_cpus.iq.FU_type_0::SimdReduceAlu            0      0.00%     47.36% # Type of FU issued
system.switch_cpus.iq.FU_type_0::SimdReduceCmp            0      0.00%     47.36% # Type of FU issued
system.switch_cpus.iq.FU_type_0::SimdFloatReduceAdd            0      0.00%     47.36% # Type of FU issued
system.switch_cpus.iq.FU_type_0::SimdFloatReduceCmp            0      0.00%     47.36% # Type of FU issued
system.switch_cpus.iq.FU_type_0::SimdAes            0      0.00%     47.36% # Type of FU issued
system.switch_cpus.iq.FU_type_0::SimdAesMix            0      0.00%     47.36% # Type of FU issued
system.switch_cpus.iq.FU_type_0::SimdSha1Hash            0      0.00%     47.36% # Type of FU issued
system.switch_cpus.iq.FU_type_0::SimdSha1Hash2            0      0.00%     47.36% # Type of FU issued
system.switch_cpus.iq.FU_type_0::SimdSha256Hash            0      0.00%     47.36% # Type of FU issued
system.switch_cpus.iq.FU_type_0::SimdSha256Hash2            0      0.00%     47.36% # Type of FU issued
system.switch_cpus.iq.FU_type_0::SimdShaSigma2            0      0.00%     47.36% # Type of FU issued
system.switch_cpus.iq.FU_type_0::SimdShaSigma3            0      0.00%     47.36% # Type of FU issued
system.switch_cpus.iq.FU_type_0::SimdPredAlu            0      0.00%     47.36% # Type of FU issued
system.switch_cpus.iq.FU_type_0::MemRead     18519304     51.50%     98.86% # Type of FU issued
system.switch_cpus.iq.FU_type_0::MemWrite       411498      1.14%    100.00% # Type of FU issued
system.switch_cpus.iq.FU_type_0::FloatMemRead            0      0.00%    100.00% # Type of FU issued
system.switch_cpus.iq.FU_type_0::FloatMemWrite            0      0.00%    100.00% # Type of FU issued
system.switch_cpus.iq.FU_type_0::IprAccess            0      0.00%    100.00% # Type of FU issued
system.switch_cpus.iq.FU_type_0::InstPrefetch            0      0.00%    100.00% # Type of FU issued
system.switch_cpus.iq.FU_type_0::total       35961462                       # Type of FU issued
system.switch_cpus.iq.fp_alu_accesses               0                       # Number of floating point alu accesses
system.switch_cpus.iq.fp_inst_queue_reads            0                       # Number of floating instruction queue reads
system.switch_cpus.iq.fp_inst_queue_wakeup_accesses            0                       # Number of floating instruction queue wakeup accesses
system.switch_cpus.iq.fp_inst_queue_writes            0                       # Number of floating instruction queue writes
system.switch_cpus.iq.fu_busy_cnt             2862027                       # FU busy when requested
system.switch_cpus.iq.fu_busy_rate           0.079586                       # FU busy rate (busy events/executed inst)
system.switch_cpus.iq.fu_full::No_OpClass            0      0.00%      0.00% # attempts to use FU when none available
system.switch_cpus.iq.fu_full::IntAlu           85317      2.98%      2.98% # attempts to use FU when none available
system.switch_cpus.iq.fu_full::IntMult              0      0.00%      2.98% # attempts to use FU when none available
system.switch_cpus.iq.fu_full::IntDiv               0      0.00%      2.98% # attempts to use FU when none available
system.switch_cpus.iq.fu_full::FloatAdd             0      0.00%      2.98% # attempts to use FU when none available
system.switch_cpus.iq.fu_full::FloatCmp             0      0.00%      2.98% # attempts to use FU when none available
system.switch_cpus.iq.fu_full::FloatCvt             0      0.00%      2.98% # attempts to use FU when none available
system.switch_cpus.iq.fu_full::FloatMult            0      0.00%      2.98% # attempts to use FU when none available
system.switch_cpus.iq.fu_full::FloatMultAcc            0      0.00%      2.98% # attempts to use FU when none available
system.switch_cpus.iq.fu_full::FloatDiv             0      0.00%      2.98% # attempts to use FU when none available
system.switch_cpus.iq.fu_full::FloatMisc            0      0.00%      2.98% # attempts to use FU when none available
system.switch_cpus.iq.fu_full::FloatSqrt            0      0.00%      2.98% # attempts to use FU when none available
system.switch_cpus.iq.fu_full::SimdAdd              0      0.00%      2.98% # attempts to use FU when none available
system.switch_cpus.iq.fu_full::SimdAddAcc            0      0.00%      2.98% # attempts to use FU when none available
system.switch_cpus.iq.fu_full::SimdAlu              0      0.00%      2.98% # attempts to use FU when none available
system.switch_cpus.iq.fu_full::SimdCmp              0      0.00%      2.98% # attempts to use FU when none available
system.switch_cpus.iq.fu_full::SimdCvt              0      0.00%      2.98% # attempts to use FU when none available
system.switch_cpus.iq.fu_full::SimdMisc             0      0.00%      2.98% # attempts to use FU when none available
system.switch_cpus.iq.fu_full::SimdMult             0      0.00%      2.98% # attempts to use FU when none available
system.switch_cpus.iq.fu_full::SimdMultAcc            0      0.00%      2.98% # attempts to use FU when none available
system.switch_cpus.iq.fu_full::SimdShift            0      0.00%      2.98% # attempts to use FU when none available
system.switch_cpus.iq.fu_full::SimdShiftAcc            0      0.00%      2.98% # attempts to use FU when none available
system.switch_cpus.iq.fu_full::SimdDiv              0      0.00%      2.98% # attempts to use FU when none available
system.switch_cpus.iq.fu_full::SimdSqrt             0      0.00%      2.98% # attempts to use FU when none available
system.switch_cpus.iq.fu_full::SimdFloatAdd            0      0.00%      2.98% # attempts to use FU when none available
system.switch_cpus.iq.fu_full::SimdFloatAlu            0      0.00%      2.98% # attempts to use FU when none available
system.switch_cpus.iq.fu_full::SimdFloatCmp            0      0.00%      2.98% # attempts to use FU when none available
system.switch_cpus.iq.fu_full::SimdFloatCvt            0      0.00%      2.98% # attempts to use FU when none available
system.switch_cpus.iq.fu_full::SimdFloatDiv            0      0.00%      2.98% # attempts to use FU when none available
system.switch_cpus.iq.fu_full::SimdFloatMisc            0      0.00%      2.98% # attempts to use FU when none available
system.switch_cpus.iq.fu_full::SimdFloatMult            0      0.00%      2.98% # attempts to use FU when none available
system.switch_cpus.iq.fu_full::SimdFloatMultAcc            0      0.00%      2.98% # attempts to use FU when none available
system.switch_cpus.iq.fu_full::SimdFloatSqrt            0      0.00%      2.98% # attempts to use FU when none available
system.switch_cpus.iq.fu_full::SimdReduceAdd            0      0.00%      2.98% # attempts to use FU when none available
system.switch_cpus.iq.fu_full::SimdReduceAlu            0      0.00%      2.98% # attempts to use FU when none available
system.switch_cpus.iq.fu_full::SimdReduceCmp            0      0.00%      2.98% # attempts to use FU when none available
system.switch_cpus.iq.fu_full::SimdFloatReduceAdd            0      0.00%      2.98% # attempts to use FU when none available
system.switch_cpus.iq.fu_full::SimdFloatReduceCmp            0      0.00%      2.98% # attempts to use FU when none available
system.switch_cpus.iq.fu_full::SimdAes              0      0.00%      2.98% # attempts to use FU when none available
system.switch_cpus.iq.fu_full::SimdAesMix            0      0.00%      2.98% # attempts to use FU when none available
system.switch_cpus.iq.fu_full::SimdSha1Hash            0      0.00%      2.98% # attempts to use FU when none available
system.switch_cpus.iq.fu_full::SimdSha1Hash2            0      0.00%      2.98% # attempts to use FU when none available
system.switch_cpus.iq.fu_full::SimdSha256Hash            0      0.00%      2.98% # attempts to use FU when none available
system.switch_cpus.iq.fu_full::SimdSha256Hash2            0      0.00%      2.98% # attempts to use FU when none available
system.switch_cpus.iq.fu_full::SimdShaSigma2            0      0.00%      2.98% # attempts to use FU when none available
system.switch_cpus.iq.fu_full::SimdShaSigma3            0      0.00%      2.98% # attempts to use FU when none available
system.switch_cpus.iq.fu_full::SimdPredAlu            0      0.00%      2.98% # attempts to use FU when none available
system.switch_cpus.iq.fu_full::MemRead        2758691     96.39%     99.37% # attempts to use FU when none available
system.switch_cpus.iq.fu_full::MemWrite         18019      0.63%    100.00% # attempts to use FU when none available
system.switch_cpus.iq.fu_full::FloatMemRead            0      0.00%    100.00% # attempts to use FU when none available
system.switch_cpus.iq.fu_full::FloatMemWrite            0      0.00%    100.00% # attempts to use FU when none available
system.switch_cpus.iq.fu_full::IprAccess            0      0.00%    100.00% # attempts to use FU when none available
system.switch_cpus.iq.fu_full::InstPrefetch            0      0.00%    100.00% # attempts to use FU when none available
system.switch_cpus.iq.int_alu_accesses       38722518                       # Number of integer alu accesses
system.switch_cpus.iq.int_inst_queue_reads    149425169                       # Number of integer instruction queue reads
system.switch_cpus.iq.int_inst_queue_wakeup_accesses     21394358                       # Number of integer instruction queue wakeup accesses
system.switch_cpus.iq.int_inst_queue_writes     31045351                       # Number of integer instruction queue writes
system.switch_cpus.iq.iqInstsAdded           24304676                       # Number of instructions added to the IQ (excludes non-spec)
system.switch_cpus.iq.iqInstsIssued          35961462                       # Number of instructions issued
system.switch_cpus.iq.iqSquashedInstsExamined      6740338                       # Number of squashed instructions iterated over during squash; mainly for profiling
system.switch_cpus.iq.iqSquashedInstsIssued       154839                       # Number of squashed instructions issued
system.switch_cpus.iq.iqSquashedOperandsExamined     10075020                       # Number of squashed operands that are examined and possibly removed from graph
system.switch_cpus.iq.issued_per_cycle::samples     74485382                       # Number of insts issued each cycle
system.switch_cpus.iq.issued_per_cycle::mean     0.482799                       # Number of insts issued each cycle
system.switch_cpus.iq.issued_per_cycle::stdev     1.328402                       # Number of insts issued each cycle
system.switch_cpus.iq.issued_per_cycle::underflows            0      0.00%      0.00% # Number of insts issued each cycle
system.switch_cpus.iq.issued_per_cycle::0     62587248     84.03%     84.03% # Number of insts issued each cycle
system.switch_cpus.iq.issued_per_cycle::1      3729885      5.01%     89.03% # Number of insts issued each cycle
system.switch_cpus.iq.issued_per_cycle::2      1778766      2.39%     91.42% # Number of insts issued each cycle
system.switch_cpus.iq.issued_per_cycle::3      1360942      1.83%     93.25% # Number of insts issued each cycle
system.switch_cpus.iq.issued_per_cycle::4      2373462      3.19%     96.44% # Number of insts issued each cycle
system.switch_cpus.iq.issued_per_cycle::5      1345637      1.81%     98.24% # Number of insts issued each cycle
system.switch_cpus.iq.issued_per_cycle::6       942099      1.26%     99.51% # Number of insts issued each cycle
system.switch_cpus.iq.issued_per_cycle::7       222152      0.30%     99.81% # Number of insts issued each cycle
system.switch_cpus.iq.issued_per_cycle::8       145191      0.19%    100.00% # Number of insts issued each cycle
system.switch_cpus.iq.issued_per_cycle::overflows            0      0.00%    100.00% # Number of insts issued each cycle
system.switch_cpus.iq.issued_per_cycle::min_value            0                       # Number of insts issued each cycle
system.switch_cpus.iq.issued_per_cycle::max_value            8                       # Number of insts issued each cycle
system.switch_cpus.iq.issued_per_cycle::total     74485382                       # Number of insts issued each cycle
system.switch_cpus.iq.rate                   0.482771                       # Inst issue rate
system.switch_cpus.iq.vec_alu_accesses              0                       # Number of vector alu accesses
system.switch_cpus.iq.vec_inst_queue_reads            0                       # Number of vector instruction queue reads
system.switch_cpus.iq.vec_inst_queue_wakeup_accesses            0                       # Number of vector instruction queue wakeup accesses
system.switch_cpus.iq.vec_inst_queue_writes            0                       # Number of vector instruction queue writes
system.switch_cpus.itb.rdAccesses                   0                       # TLB accesses on read requests
system.switch_cpus.itb.rdMisses                     0                       # TLB misses on read requests
system.switch_cpus.itb.wrAccesses              906560                       # TLB accesses on write requests
system.switch_cpus.itb.wrMisses                    55                       # TLB misses on write requests
system.switch_cpus.memDep0.conflictingLoads       204852                       # Number of conflicting loads.
system.switch_cpus.memDep0.conflictingStores       191874                       # Number of conflicting stores.
system.switch_cpus.memDep0.insertedLoads      5137075                       # Number of loads inserted to the mem dependence unit.
system.switch_cpus.memDep0.insertedStores       584637                       # Number of stores inserted to the mem dependence unit.
system.switch_cpus.misc_regfile_reads        25538831                       # number of misc regfile reads
system.switch_cpus.misc_regfile_writes              1                       # number of misc regfile writes
system.switch_cpus.numCycles                 74489742                       # number of cpu cycles simulated
system.switch_cpus.numWorkItemsCompleted            0                       # number of work items this cpu completed
system.switch_cpus.numWorkItemsStarted              0                       # number of work items this cpu started
system.switch_cpus.rename.BlockCycles        39594006                       # Number of cycles rename is blocking
system.switch_cpus.rename.CommittedMaps      22614526                       # Number of HB maps that are committed
system.switch_cpus.rename.IQFullEvents       11101095                       # Number of times rename has blocked due to IQ full
system.switch_cpus.rename.IdleCycles          1817857                       # Number of cycles rename is idle
system.switch_cpus.rename.LQFullEvents       27092188                       # Number of times rename has blocked due to LQ full
system.switch_cpus.rename.ROBFullEvents        143517                       # Number of times rename has blocked due to ROB full
system.switch_cpus.rename.RenameLookups      68094325                       # Number of register rename lookups that rename has made
system.switch_cpus.rename.RenamedInsts       25730744                       # Number of instructions processed by rename
system.switch_cpus.rename.RenamedOperands     32381521                       # Number of destination operands rename has renamed
system.switch_cpus.rename.RunCycles           2805956                       # Number of cycles rename is running
system.switch_cpus.rename.SQFullEvents          62978                       # Number of times rename has blocked due to SQ full
system.switch_cpus.rename.SquashCycles         176579                       # Number of cycles rename is squashing
system.switch_cpus.rename.UnblockCycles      30086824                       # Number of cycles rename is unblocking
system.switch_cpus.rename.UndoneMaps          9766839                       # Number of HB maps that are undone due to squashing
system.switch_cpus.rename.int_rename_lookups     34794560                       # Number of integer rename lookups
system.switch_cpus.rename.serializeStallCycles         4153                       # count of cycles rename stalled for serializing inst
system.switch_cpus.rename.serializingInsts         2014                       # count of serializing insts renamed
system.switch_cpus.rename.skidInsts           9778578                       # count of insts added to the skid buffer
system.switch_cpus.rename.tempSerializingInsts         2007                       # count of temporary serializing insts renamed
system.switch_cpus.rob.rob_reads             96430311                       # The number of ROB reads
system.switch_cpus.rob.rob_writes            49678546                       # The number of ROB writes
system.switch_cpus.timesIdled                      50                       # Number of times that the entire CPU went into an idle state and unscheduled itself
system.tol2bus.snoop_filter.hit_multi_requests            0                       # Number of requests hitting in the snoop filter with multiple (>1) holders of the requested data.
system.tol2bus.snoop_filter.hit_multi_snoops            0                       # Number of snoops hitting in the snoop filter with multiple (>1) holders of the requested data.
system.tol2bus.snoop_filter.hit_single_requests      1417292                       # Number of requests hitting in the snoop filter with a single holder of the requested data.
system.tol2bus.snoop_filter.hit_single_snoops       550340                       # Number of snoops hitting in the snoop filter with a single holder of the requested data.
system.tol2bus.snoop_filter.tot_requests      2835674                       # Total number of requests made to the snoop filter.
system.tol2bus.snoop_filter.tot_snoops         550340                       # Total number of snoops made to the snoop filter.
system.membus.pwrStateResidencyTicks::UNDEFINED 190187779151000                       # Cumulative time (in ticks) in various power states
system.membus.trans_dist::ReadResp            1197711                       # Transaction distribution
system.membus.trans_dist::WritebackDirty        52670                       # Transaction distribution
system.membus.trans_dist::CleanEvict          1147541                       # Transaction distribution
system.membus.trans_dist::ReadExReq              4678                       # Transaction distribution
system.membus.trans_dist::ReadExResp             4678                       # Transaction distribution
system.membus.trans_dist::ReadSharedReq       1197713                       # Transaction distribution
system.membus.pkt_count_system.l2.mem_side::system.mem_ctrls.port      3604991                       # Packet count per connected master and slave (bytes)
system.membus.pkt_count_system.l2.mem_side::total      3604991                       # Packet count per connected master and slave (bytes)
system.membus.pkt_count::total                3604991                       # Packet count per connected master and slave (bytes)
system.membus.pkt_size_system.l2.mem_side::system.mem_ctrls.port     80323776                       # Cumulative packet size per connected master and slave (bytes)
system.membus.pkt_size_system.l2.mem_side::total     80323776                       # Cumulative packet size per connected master and slave (bytes)
system.membus.pkt_size::total                80323776                       # Cumulative packet size per connected master and slave (bytes)
system.membus.snoops                                0                       # Total snoops (count)
system.membus.snoopTraffic                          0                       # Total snoop traffic (bytes)
system.membus.snoop_fanout::samples           1202391                       # Request fanout histogram
system.membus.snoop_fanout::mean                    0                       # Request fanout histogram
system.membus.snoop_fanout::stdev                   0                       # Request fanout histogram
system.membus.snoop_fanout::underflows              0      0.00%      0.00% # Request fanout histogram
system.membus.snoop_fanout::0                 1202391    100.00%    100.00% # Request fanout histogram
system.membus.snoop_fanout::1                       0      0.00%    100.00% # Request fanout histogram
system.membus.snoop_fanout::overflows               0      0.00%    100.00% # Request fanout histogram
system.membus.snoop_fanout::min_value               0                       # Request fanout histogram
system.membus.snoop_fanout::max_value               0                       # Request fanout histogram
system.membus.snoop_fanout::total             1202391                       # Request fanout histogram
system.membus.reqLayer2.occupancy          2745169000                       # Layer occupancy (ticks)
system.membus.reqLayer2.utilization               7.4                       # Layer utilization (%)
system.membus.respLayer1.occupancy         6720797750                       # Layer occupancy (ticks)
system.membus.respLayer1.utilization             18.0                       # Layer utilization (%)
system.switch_cpus.pwrStateResidencyTicks::OFF  37244882250                       # Cumulative time (in ticks) in various power states
system.switch_cpus.dtb.walker.pwrStateResidencyTicks::UNDEFINED 190187779151000                       # Cumulative time (in ticks) in various power states
system.switch_cpus.itb.walker.pwrStateResidencyTicks::UNDEFINED 190187779151000                       # Cumulative time (in ticks) in various power states
system.tol2bus.pwrStateResidencyTicks::UNDEFINED 190187779151000                       # Cumulative time (in ticks) in various power states
system.tol2bus.trans_dist::ReadResp           1410465                       # Transaction distribution
system.tol2bus.trans_dist::WritebackDirty       132768                       # Transaction distribution
system.tol2bus.trans_dist::CleanEvict         2522164                       # Transaction distribution
system.tol2bus.trans_dist::ReadExReq             7913                       # Transaction distribution
system.tol2bus.trans_dist::ReadExResp            7913                       # Transaction distribution
system.tol2bus.trans_dist::ReadCleanReq            62                       # Transaction distribution
system.tol2bus.trans_dist::ReadSharedReq      1410407                       # Transaction distribution
system.tol2bus.pkt_count_system.cpu.icache.mem_side::system.l2.cpu_side          124                       # Packet count per connected master and slave (bytes)
system.tol2bus.pkt_count_system.cpu.dcache.mem_side::system.l2.cpu_side      4253928                       # Packet count per connected master and slave (bytes)
system.tol2bus.pkt_count::total               4254052                       # Packet count per connected master and slave (bytes)
system.tol2bus.pkt_size_system.cpu.icache.mem_side::system.l2.cpu_side         3968                       # Cumulative packet size per connected master and slave (bytes)
system.tol2bus.pkt_size_system.cpu.dcache.mem_side::system.l2.cpu_side     95898496                       # Cumulative packet size per connected master and slave (bytes)
system.tol2bus.pkt_size::total               95902464                       # Cumulative packet size per connected master and slave (bytes)
system.tol2bus.snoops                         1237640                       # Total snoops (count)
system.tol2bus.snoopTraffic                   3370880                       # Total snoop traffic (bytes)
system.tol2bus.snoop_fanout::samples          2656022                       # Request fanout histogram
system.tol2bus.snoop_fanout::mean            0.207205                       # Request fanout histogram
system.tol2bus.snoop_fanout::stdev           0.405303                       # Request fanout histogram
system.tol2bus.snoop_fanout::underflows             0      0.00%      0.00% # Request fanout histogram
system.tol2bus.snoop_fanout::0                2105682     79.28%     79.28% # Request fanout histogram
system.tol2bus.snoop_fanout::1                 550340     20.72%    100.00% # Request fanout histogram
system.tol2bus.snoop_fanout::2                      0      0.00%    100.00% # Request fanout histogram
system.tol2bus.snoop_fanout::3                      0      0.00%    100.00% # Request fanout histogram
system.tol2bus.snoop_fanout::4                      0      0.00%    100.00% # Request fanout histogram
system.tol2bus.snoop_fanout::overflows              0      0.00%    100.00% # Request fanout histogram
system.tol2bus.snoop_fanout::min_value              0                       # Request fanout histogram
system.tol2bus.snoop_fanout::max_value              1                       # Request fanout histogram
system.tol2bus.snoop_fanout::total            2656022                       # Request fanout histogram
system.tol2bus.reqLayer0.occupancy         1497933500                       # Layer occupancy (ticks)
system.tol2bus.reqLayer0.utilization              4.0                       # Layer utilization (%)
system.tol2bus.respLayer1.occupancy        2127471000                       # Layer occupancy (ticks)
system.tol2bus.respLayer1.utilization             5.7                       # Layer utilization (%)
system.tol2bus.respLayer0.occupancy             91500                       # Layer occupancy (ticks)
system.tol2bus.respLayer0.utilization             0.0                       # Layer utilization (%)
system.voltage_domain.voltage                       1                       # Voltage in Volts
system.clk_domain.clock                          1000                       # Clock period in ticks
system.l2.pwrStateResidencyTicks::UNDEFINED 190187779151000                       # Cumulative time (in ticks) in various power states
system.l2.demand_hits::.switch_cpus.data       215989                       # number of demand (read+write) hits
system.l2.demand_hits::total                   215989                       # number of demand (read+write) hits
system.l2.overall_hits::.switch_cpus.data       215989                       # number of overall hits
system.l2.overall_hits::total                  215989                       # number of overall hits
system.l2.demand_misses::.cpu.inst                  1                       # number of demand (read+write) misses
system.l2.demand_misses::.cpu.data                  2                       # number of demand (read+write) misses
system.l2.demand_misses::.switch_cpus.inst           61                       # number of demand (read+write) misses
system.l2.demand_misses::.switch_cpus.data      1202329                       # number of demand (read+write) misses
system.l2.demand_misses::total                1202393                       # number of demand (read+write) misses
system.l2.overall_misses::.cpu.inst                 1                       # number of overall misses
system.l2.overall_misses::.cpu.data                 2                       # number of overall misses
system.l2.overall_misses::.switch_cpus.inst           61                       # number of overall misses
system.l2.overall_misses::.switch_cpus.data      1202329                       # number of overall misses
system.l2.overall_misses::total               1202393                       # number of overall misses
system.l2.demand_miss_latency::.switch_cpus.inst      5093500                       # number of demand (read+write) miss cycles
system.l2.demand_miss_latency::.switch_cpus.data 121654811000                       # number of demand (read+write) miss cycles
system.l2.demand_miss_latency::total     121659904500                       # number of demand (read+write) miss cycles
system.l2.overall_miss_latency::.switch_cpus.inst      5093500                       # number of overall miss cycles
system.l2.overall_miss_latency::.switch_cpus.data 121654811000                       # number of overall miss cycles
system.l2.overall_miss_latency::total    121659904500                       # number of overall miss cycles
system.l2.demand_accesses::.cpu.inst                1                       # number of demand (read+write) accesses
system.l2.demand_accesses::.cpu.data                2                       # number of demand (read+write) accesses
system.l2.demand_accesses::.switch_cpus.inst           61                       # number of demand (read+write) accesses
system.l2.demand_accesses::.switch_cpus.data      1418318                       # number of demand (read+write) accesses
system.l2.demand_accesses::total              1418382                       # number of demand (read+write) accesses
system.l2.overall_accesses::.cpu.inst               1                       # number of overall (read+write) accesses
system.l2.overall_accesses::.cpu.data               2                       # number of overall (read+write) accesses
system.l2.overall_accesses::.switch_cpus.inst           61                       # number of overall (read+write) accesses
system.l2.overall_accesses::.switch_cpus.data      1418318                       # number of overall (read+write) accesses
system.l2.overall_accesses::total             1418382                       # number of overall (read+write) accesses
system.l2.demand_miss_rate::.cpu.inst               1                       # miss rate for demand accesses
system.l2.demand_miss_rate::.cpu.data               1                       # miss rate for demand accesses
system.l2.demand_miss_rate::.switch_cpus.inst            1                       # miss rate for demand accesses
system.l2.demand_miss_rate::.switch_cpus.data     0.847715                       # miss rate for demand accesses
system.l2.demand_miss_rate::total            0.847722                       # miss rate for demand accesses
system.l2.overall_miss_rate::.cpu.inst              1                       # miss rate for overall accesses
system.l2.overall_miss_rate::.cpu.data              1                       # miss rate for overall accesses
system.l2.overall_miss_rate::.switch_cpus.inst            1                       # miss rate for overall accesses
system.l2.overall_miss_rate::.switch_cpus.data     0.847715                       # miss rate for overall accesses
system.l2.overall_miss_rate::total           0.847722                       # miss rate for overall accesses
system.l2.demand_avg_miss_latency::.switch_cpus.inst        83500                       # average overall miss latency
system.l2.demand_avg_miss_latency::.switch_cpus.data 101182.630545                       # average overall miss latency
system.l2.demand_avg_miss_latency::total 101181.481013                       # average overall miss latency
system.l2.overall_avg_miss_latency::.switch_cpus.inst        83500                       # average overall miss latency
system.l2.overall_avg_miss_latency::.switch_cpus.data 101182.630545                       # average overall miss latency
system.l2.overall_avg_miss_latency::total 101181.481013                       # average overall miss latency
system.l2.blocked_cycles::no_mshrs                  0                       # number of cycles access was blocked
system.l2.blocked_cycles::no_targets                0                       # number of cycles access was blocked
system.l2.blocked::no_mshrs                         0                       # number of cycles access was blocked
system.l2.blocked::no_targets                       0                       # number of cycles access was blocked
system.l2.avg_blocked_cycles::no_mshrs            nan                       # average number of cycles each access was blocked
system.l2.avg_blocked_cycles::no_targets          nan                       # average number of cycles each access was blocked
system.l2.writebacks::.writebacks               52670                       # number of writebacks
system.l2.writebacks::total                     52670                       # number of writebacks
system.l2.demand_mshr_misses::.switch_cpus.inst           61                       # number of demand (read+write) MSHR misses
system.l2.demand_mshr_misses::.switch_cpus.data      1202329                       # number of demand (read+write) MSHR misses
system.l2.demand_mshr_misses::total           1202390                       # number of demand (read+write) MSHR misses
system.l2.overall_mshr_misses::.switch_cpus.inst           61                       # number of overall MSHR misses
system.l2.overall_mshr_misses::.switch_cpus.data      1202329                       # number of overall MSHR misses
system.l2.overall_mshr_misses::total          1202390                       # number of overall MSHR misses
system.l2.demand_mshr_miss_latency::.switch_cpus.inst      4483500                       # number of demand (read+write) MSHR miss cycles
system.l2.demand_mshr_miss_latency::.switch_cpus.data 109631561000                       # number of demand (read+write) MSHR miss cycles
system.l2.demand_mshr_miss_latency::total 109636044500                       # number of demand (read+write) MSHR miss cycles
system.l2.overall_mshr_miss_latency::.switch_cpus.inst      4483500                       # number of overall MSHR miss cycles
system.l2.overall_mshr_miss_latency::.switch_cpus.data 109631561000                       # number of overall MSHR miss cycles
system.l2.overall_mshr_miss_latency::total 109636044500                       # number of overall MSHR miss cycles
system.l2.demand_mshr_miss_rate::.switch_cpus.inst            1                       # mshr miss rate for demand accesses
system.l2.demand_mshr_miss_rate::.switch_cpus.data     0.847715                       # mshr miss rate for demand accesses
system.l2.demand_mshr_miss_rate::total       0.847719                       # mshr miss rate for demand accesses
system.l2.overall_mshr_miss_rate::.switch_cpus.inst            1                       # mshr miss rate for overall accesses
system.l2.overall_mshr_miss_rate::.switch_cpus.data     0.847715                       # mshr miss rate for overall accesses
system.l2.overall_mshr_miss_rate::total      0.847719                       # mshr miss rate for overall accesses
system.l2.demand_avg_mshr_miss_latency::.switch_cpus.inst        73500                       # average overall mshr miss latency
system.l2.demand_avg_mshr_miss_latency::.switch_cpus.data 91182.663813                       # average overall mshr miss latency
system.l2.demand_avg_mshr_miss_latency::total 91181.766731                       # average overall mshr miss latency
system.l2.overall_avg_mshr_miss_latency::.switch_cpus.inst        73500                       # average overall mshr miss latency
system.l2.overall_avg_mshr_miss_latency::.switch_cpus.data 91182.663813                       # average overall mshr miss latency
system.l2.overall_avg_mshr_miss_latency::total 91181.766731                       # average overall mshr miss latency
system.l2.replacements                        1237640                       # number of replacements
system.l2.WritebackDirty_hits::.writebacks        80098                       # number of WritebackDirty hits
system.l2.WritebackDirty_hits::total            80098                       # number of WritebackDirty hits
system.l2.WritebackDirty_accesses::.writebacks        80098                       # number of WritebackDirty accesses(hits+misses)
system.l2.WritebackDirty_accesses::total        80098                       # number of WritebackDirty accesses(hits+misses)
system.l2.CleanEvict_mshr_misses::.writebacks       512911                       # number of CleanEvict MSHR misses
system.l2.CleanEvict_mshr_misses::total        512911                       # number of CleanEvict MSHR misses
system.l2.CleanEvict_mshr_miss_rate::.writebacks          inf                       # mshr miss rate for CleanEvict accesses
system.l2.CleanEvict_mshr_miss_rate::total          inf                       # mshr miss rate for CleanEvict accesses
system.l2.ReadExReq_hits::.switch_cpus.data         3235                       # number of ReadExReq hits
system.l2.ReadExReq_hits::total                  3235                       # number of ReadExReq hits
system.l2.ReadExReq_misses::.switch_cpus.data         4678                       # number of ReadExReq misses
system.l2.ReadExReq_misses::total                4678                       # number of ReadExReq misses
system.l2.ReadExReq_miss_latency::.switch_cpus.data    396138000                       # number of ReadExReq miss cycles
system.l2.ReadExReq_miss_latency::total     396138000                       # number of ReadExReq miss cycles
system.l2.ReadExReq_accesses::.switch_cpus.data         7913                       # number of ReadExReq accesses(hits+misses)
system.l2.ReadExReq_accesses::total              7913                       # number of ReadExReq accesses(hits+misses)
system.l2.ReadExReq_miss_rate::.switch_cpus.data     0.591179                       # miss rate for ReadExReq accesses
system.l2.ReadExReq_miss_rate::total         0.591179                       # miss rate for ReadExReq accesses
system.l2.ReadExReq_avg_miss_latency::.switch_cpus.data 84681.060282                       # average ReadExReq miss latency
system.l2.ReadExReq_avg_miss_latency::total 84681.060282                       # average ReadExReq miss latency
system.l2.ReadExReq_mshr_misses::.switch_cpus.data         4678                       # number of ReadExReq MSHR misses
system.l2.ReadExReq_mshr_misses::total           4678                       # number of ReadExReq MSHR misses
system.l2.ReadExReq_mshr_miss_latency::.switch_cpus.data    349358000                       # number of ReadExReq MSHR miss cycles
system.l2.ReadExReq_mshr_miss_latency::total    349358000                       # number of ReadExReq MSHR miss cycles
system.l2.ReadExReq_mshr_miss_rate::.switch_cpus.data     0.591179                       # mshr miss rate for ReadExReq accesses
system.l2.ReadExReq_mshr_miss_rate::total     0.591179                       # mshr miss rate for ReadExReq accesses
system.l2.ReadExReq_avg_mshr_miss_latency::.switch_cpus.data 74681.060282                       # average ReadExReq mshr miss latency
system.l2.ReadExReq_avg_mshr_miss_latency::total 74681.060282                       # average ReadExReq mshr miss latency
system.l2.ReadCleanReq_misses::.cpu.inst            1                       # number of ReadCleanReq misses
system.l2.ReadCleanReq_misses::.switch_cpus.inst           61                       # number of ReadCleanReq misses
system.l2.ReadCleanReq_misses::total               62                       # number of ReadCleanReq misses
system.l2.ReadCleanReq_miss_latency::.switch_cpus.inst      5093500                       # number of ReadCleanReq miss cycles
system.l2.ReadCleanReq_miss_latency::total      5093500                       # number of ReadCleanReq miss cycles
system.l2.ReadCleanReq_accesses::.cpu.inst            1                       # number of ReadCleanReq accesses(hits+misses)
system.l2.ReadCleanReq_accesses::.switch_cpus.inst           61                       # number of ReadCleanReq accesses(hits+misses)
system.l2.ReadCleanReq_accesses::total             62                       # number of ReadCleanReq accesses(hits+misses)
system.l2.ReadCleanReq_miss_rate::.cpu.inst            1                       # miss rate for ReadCleanReq accesses
system.l2.ReadCleanReq_miss_rate::.switch_cpus.inst            1                       # miss rate for ReadCleanReq accesses
system.l2.ReadCleanReq_miss_rate::total             1                       # miss rate for ReadCleanReq accesses
system.l2.ReadCleanReq_avg_miss_latency::.switch_cpus.inst        83500                       # average ReadCleanReq miss latency
system.l2.ReadCleanReq_avg_miss_latency::total 82153.225806                       # average ReadCleanReq miss latency
system.l2.ReadCleanReq_mshr_misses::.switch_cpus.inst           61                       # number of ReadCleanReq MSHR misses
system.l2.ReadCleanReq_mshr_misses::total           61                       # number of ReadCleanReq MSHR misses
system.l2.ReadCleanReq_mshr_miss_latency::.switch_cpus.inst      4483500                       # number of ReadCleanReq MSHR miss cycles
system.l2.ReadCleanReq_mshr_miss_latency::total      4483500                       # number of ReadCleanReq MSHR miss cycles
system.l2.ReadCleanReq_mshr_miss_rate::.switch_cpus.inst            1                       # mshr miss rate for ReadCleanReq accesses
system.l2.ReadCleanReq_mshr_miss_rate::total     0.983871                       # mshr miss rate for ReadCleanReq accesses
system.l2.ReadCleanReq_avg_mshr_miss_latency::.switch_cpus.inst        73500                       # average ReadCleanReq mshr miss latency
system.l2.ReadCleanReq_avg_mshr_miss_latency::total        73500                       # average ReadCleanReq mshr miss latency
system.l2.ReadSharedReq_hits::.switch_cpus.data       212754                       # number of ReadSharedReq hits
system.l2.ReadSharedReq_hits::total            212754                       # number of ReadSharedReq hits
system.l2.ReadSharedReq_misses::.cpu.data            2                       # number of ReadSharedReq misses
[...]
system.cpu.icache.tags.age_task_id_blocks_1024::4           62                       # Occupied blocks per task id
system.cpu.icache.tags.occ_task_id_percent::1024     0.121094                       # Percentage of cache occupancy per task id
system.cpu.icache.tags.tag_accesses           2795210                       # Number of tag accesses
system.cpu.icache.tags.data_accesses          2795210                       # Number of data accesses
system.cpu.dtb.walker.pwrStateResidencyTicks::UNDEFINED 190307446998000                       # Cumulative time (in ticks) in various power states
system.cpu.interrupts.clk_domain.clock           8000                       # Clock period in ticks
system.cpu.itb_walker_cache.pwrStateResidencyTicks::UNDEFINED 190307446998000                       # Cumulative time (in ticks) in various power states
system.cpu.itb_walker_cache.blocked_cycles::no_mshrs            0                       # number of cycles access was blocked
system.cpu.itb_walker_cache.blocked_cycles::no_targets            0                       # number of cycles access was blocked
system.cpu.itb_walker_cache.blocked::no_mshrs            0                       # number of cycles access was blocked
system.cpu.itb_walker_cache.blocked::no_targets            0                       # number of cycles access was blocked
system.cpu.itb_walker_cache.avg_blocked_cycles::no_mshrs          nan                       # average number of cycles each access was blocked
system.cpu.itb_walker_cache.avg_blocked_cycles::no_targets          nan                       # average number of cycles each access was blocked
system.cpu.itb_walker_cache.replacements            0                       # number of replacements
system.cpu.itb_walker_cache.tags.pwrStateResidencyTicks::UNDEFINED 190307446998000                       # Cumulative time (in ticks) in various power states
system.cpu.itb_walker_cache.tags.tagsinuse            0                       # Cycle average of tags in use
system.cpu.itb_walker_cache.tags.total_refs            0                       # Total number of references to valid blocks.
system.cpu.itb_walker_cache.tags.sampled_refs            0                       # Sample count of references to valid blocks.
system.cpu.itb_walker_cache.tags.avg_refs          nan                       # Average number of references to valid blocks.
system.cpu.itb_walker_cache.tags.warmup_cycle            0                       # Cycle when the warmup percentage was hit.
system.cpu.itb_walker_cache.tags.tag_accesses            0                       # Number of tag accesses
system.cpu.itb_walker_cache.tags.data_accesses            0                       # Number of data accesses
system.cpu.itb.walker.pwrStateResidencyTicks::UNDEFINED 190307446998000                       # Cumulative time (in ticks) in various power states
system.cpu.dtb_walker_cache.pwrStateResidencyTicks::UNDEFINED 190307446998000                       # Cumulative time (in ticks) in various power states
system.cpu.dtb_walker_cache.blocked_cycles::no_mshrs            0                       # number of cycles access was blocked
system.cpu.dtb_walker_cache.blocked_cycles::no_targets            0                       # number of cycles access was blocked
system.cpu.dtb_walker_cache.blocked::no_mshrs            0                       # number of cycles access was blocked
system.cpu.dtb_walker_cache.blocked::no_targets            0                       # number of cycles access was blocked
system.cpu.dtb_walker_cache.avg_blocked_cycles::no_mshrs          nan                       # average number of cycles each access was blocked
system.cpu.dtb_walker_cache.avg_blocked_cycles::no_targets          nan                       # average number of cycles each access was blocked
system.cpu.dtb_walker_cache.replacements            0                       # number of replacements
system.cpu.dtb_walker_cache.tags.pwrStateResidencyTicks::UNDEFINED 190307446998000                       # Cumulative time (in ticks) in various power states
system.cpu.dtb_walker_cache.tags.tagsinuse            0                       # Cycle average of tags in use
system.cpu.dtb_walker_cache.tags.total_refs            0                       # Total number of references to valid blocks.
system.cpu.dtb_walker_cache.tags.sampled_refs            0                       # Sample count of references to valid blocks.
system.cpu.dtb_walker_cache.tags.avg_refs          nan                       # Average number of references to valid blocks.
system.cpu.dtb_walker_cache.tags.warmup_cycle            0                       # Cycle when the warmup percentage was hit.
system.cpu.dtb_walker_cache.tags.tag_accesses            0                       # Number of tag accesses
system.cpu.dtb_walker_cache.tags.data_accesses            0                       # Number of data accesses
system.cpu.dcache.pwrStateResidencyTicks::UNDEFINED 190307446998000                       # Cumulative time (in ticks) in various power states
system.cpu.dcache.demand_hits::.switch_cpus.data      4978838                       # number of demand (read+write) hits
system.cpu.dcache.demand_hits::total          4978838                       # number of demand (read+write) hits
system.cpu.dcache.overall_hits::.switch_cpus.data      4978838                       # number of overall hits
system.cpu.dcache.overall_hits::total         4978838                       # number of overall hits
system.cpu.dcache.demand_misses::.cpu.data            2                       # number of demand (read+write) misses
system.cpu.dcache.demand_misses::.switch_cpus.data     12876904                       # number of demand (read+write) misses
system.cpu.dcache.demand_misses::total       12876906                       # number of demand (read+write) misses
system.cpu.dcache.overall_misses::.cpu.data            2                       # number of overall misses
system.cpu.dcache.overall_misses::.switch_cpus.data     12876904                       # number of overall misses
system.cpu.dcache.overall_misses::total      12876906                       # number of overall misses
system.cpu.dcache.demand_miss_latency::.switch_cpus.data 997481900397                       # number of demand (read+write) miss cycles
system.cpu.dcache.demand_miss_latency::total 997481900397                       # number of demand (read+write) miss cycles
system.cpu.dcache.overall_miss_latency::.switch_cpus.data 997481900397                       # number of overall miss cycles
system.cpu.dcache.overall_miss_latency::total 997481900397                       # number of overall miss cycles
system.cpu.dcache.demand_accesses::.cpu.data            2                       # number of demand (read+write) accesses
system.cpu.dcache.demand_accesses::.switch_cpus.data     17855742                       # number of demand (read+write) accesses
system.cpu.dcache.demand_accesses::total     17855744                       # number of demand (read+write) accesses
system.cpu.dcache.overall_accesses::.cpu.data            2                       # number of overall (read+write) accesses
system.cpu.dcache.overall_accesses::.switch_cpus.data     17855742                       # number of overall (read+write) accesses
system.cpu.dcache.overall_accesses::total     17855744                       # number of overall (read+write) accesses
system.cpu.dcache.demand_miss_rate::.cpu.data            1                       # miss rate for demand accesses
system.cpu.dcache.demand_miss_rate::.switch_cpus.data     0.721163                       # miss rate for demand accesses
system.cpu.dcache.demand_miss_rate::total     0.721163                       # miss rate for demand accesses
system.cpu.dcache.overall_miss_rate::.cpu.data            1                       # miss rate for overall accesses
system.cpu.dcache.overall_miss_rate::.switch_cpus.data     0.721163                       # miss rate for overall accesses
system.cpu.dcache.overall_miss_rate::total     0.721163                       # miss rate for overall accesses
system.cpu.dcache.demand_avg_miss_latency::.switch_cpus.data 77462.866881                       # average overall miss latency
system.cpu.dcache.demand_avg_miss_latency::total 77462.854850                       # average overall miss latency
system.cpu.dcache.overall_avg_miss_latency::.switch_cpus.data 77462.866881                       # average overall miss latency
system.cpu.dcache.overall_avg_miss_latency::total 77462.854850                       # average overall miss latency
system.cpu.dcache.blocked_cycles::no_mshrs    275449204                       # number of cycles access was blocked
system.cpu.dcache.blocked_cycles::no_targets           53                       # number of cycles access was blocked
system.cpu.dcache.blocked::no_mshrs           6327816                       # number of cycles access was blocked
system.cpu.dcache.blocked::no_targets               2                       # number of cycles access was blocked
system.cpu.dcache.avg_blocked_cycles::no_mshrs    43.529901                       # average number of cycles each access was blocked
system.cpu.dcache.avg_blocked_cycles::no_targets    26.500000                       # average number of cycles each access was blocked
system.cpu.dcache.writebacks::.writebacks       122608                       # number of writebacks
system.cpu.dcache.writebacks::total            122608                       # number of writebacks
system.cpu.dcache.demand_mshr_hits::.switch_cpus.data      6304751                       # number of demand (read+write) MSHR hits
system.cpu.dcache.demand_mshr_hits::total      6304751                       # number of demand (read+write) MSHR hits
system.cpu.dcache.overall_mshr_hits::.switch_cpus.data      6304751                       # number of overall MSHR hits
system.cpu.dcache.overall_mshr_hits::total      6304751                       # number of overall MSHR hits
system.cpu.dcache.demand_mshr_misses::.switch_cpus.data      6572153                       # number of demand (read+write) MSHR misses
system.cpu.dcache.demand_mshr_misses::total      6572153                       # number of demand (read+write) MSHR misses
system.cpu.dcache.overall_mshr_misses::.switch_cpus.data      6572153                       # number of overall MSHR misses
system.cpu.dcache.overall_mshr_misses::total      6572153                       # number of overall MSHR misses
system.cpu.dcache.demand_mshr_miss_latency::.switch_cpus.data 588175474478                       # number of demand (read+write) MSHR miss cycles
system.cpu.dcache.demand_mshr_miss_latency::total 588175474478                       # number of demand (read+write) MSHR miss cycles
system.cpu.dcache.overall_mshr_miss_latency::.switch_cpus.data 588175474478                       # number of overall MSHR miss cycles
system.cpu.dcache.overall_mshr_miss_latency::total 588175474478                       # number of overall MSHR miss cycles
system.cpu.dcache.demand_mshr_miss_rate::.switch_cpus.data     0.368069                       # mshr miss rate for demand accesses
system.cpu.dcache.demand_mshr_miss_rate::total     0.368069                       # mshr miss rate for demand accesses
system.cpu.dcache.overall_mshr_miss_rate::.switch_cpus.data     0.368069                       # mshr miss rate for overall accesses
system.cpu.dcache.overall_mshr_miss_rate::total     0.368069                       # mshr miss rate for overall accesses
system.cpu.dcache.demand_avg_mshr_miss_latency::.switch_cpus.data 89495.097646                       # average overall mshr miss latency
system.cpu.dcache.demand_avg_mshr_miss_latency::total 89495.097646                       # average overall mshr miss latency
system.cpu.dcache.overall_avg_mshr_miss_latency::.switch_cpus.data 89495.097646                       # average overall mshr miss latency
system.cpu.dcache.overall_avg_mshr_miss_latency::total 89495.097646                       # average overall mshr miss latency
system.cpu.dcache.replacements                6571127                       # number of replacements
system.cpu.dcache.ReadReq_hits::.switch_cpus.data      4582782                       # number of ReadReq hits
system.cpu.dcache.ReadReq_hits::total         4582782                       # number of ReadReq hits
system.cpu.dcache.ReadReq_misses::.cpu.data            2                       # number of ReadReq misses
system.cpu.dcache.ReadReq_misses::.switch_cpus.data     12865979                       # number of ReadReq misses
system.cpu.dcache.ReadReq_misses::total      12865981                       # number of ReadReq misses
system.cpu.dcache.ReadReq_miss_latency::.switch_cpus.data 996875087000                       # number of ReadReq miss cycles
system.cpu.dcache.ReadReq_miss_latency::total 996875087000                       # number of ReadReq miss cycles
system.cpu.dcache.ReadReq_accesses::.cpu.data            2                       # number of ReadReq accesses(hits+misses)
system.cpu.dcache.ReadReq_accesses::.switch_cpus.data     17448761                       # number of ReadReq accesses(hits+misses)
system.cpu.dcache.ReadReq_accesses::total     17448763                       # number of ReadReq accesses(hits+misses)
system.cpu.dcache.ReadReq_miss_rate::.cpu.data            1                       # miss rate for ReadReq accesses
system.cpu.dcache.ReadReq_miss_rate::.switch_cpus.data     0.737358                       # miss rate for ReadReq accesses
system.cpu.dcache.ReadReq_miss_rate::total     0.737358                       # miss rate for ReadReq accesses
system.cpu.dcache.ReadReq_avg_miss_latency::.switch_cpus.data 77481.479412                       # average ReadReq miss latency
system.cpu.dcache.ReadReq_avg_miss_latency::total 77481.467367                       # average ReadReq miss latency
system.cpu.dcache.ReadReq_mshr_hits::.switch_cpus.data      6304492                       # number of ReadReq MSHR hits
system.cpu.dcache.ReadReq_mshr_hits::total      6304492                       # number of ReadReq MSHR hits
system.cpu.dcache.ReadReq_mshr_misses::.switch_cpus.data      6561487                       # number of ReadReq MSHR misses
system.cpu.dcache.ReadReq_mshr_misses::total      6561487                       # number of ReadReq MSHR misses
system.cpu.dcache.ReadReq_mshr_miss_latency::.switch_cpus.data 587584710500                       # number of ReadReq MSHR miss cycles
system.cpu.dcache.ReadReq_mshr_miss_latency::total 587584710500                       # number of ReadReq MSHR miss cycles
system.cpu.dcache.ReadReq_mshr_miss_rate::.switch_cpus.data     0.376043                       # mshr miss rate for ReadReq accesses
system.cpu.dcache.ReadReq_mshr_miss_rate::total     0.376043                       # mshr miss rate for ReadReq accesses
system.cpu.dcache.ReadReq_avg_mshr_miss_latency::.switch_cpus.data 89550.540983                       # average ReadReq mshr miss latency
system.cpu.dcache.ReadReq_avg_mshr_miss_latency::total 89550.540983                       # average ReadReq mshr miss latency
system.cpu.dcache.WriteReq_hits::.switch_cpus.data       396056                       # number of WriteReq hits
system.cpu.dcache.WriteReq_hits::total         396056                       # number of WriteReq hits
system.cpu.dcache.WriteReq_misses::.switch_cpus.data        10925                       # number of WriteReq misses
system.cpu.dcache.WriteReq_misses::total        10925                       # number of WriteReq misses
system.cpu.dcache.WriteReq_miss_latency::.switch_cpus.data    606813397                       # number of WriteReq miss cycles
system.cpu.dcache.WriteReq_miss_latency::total    606813397                       # number of WriteReq miss cycles
system.cpu.dcache.WriteReq_accesses::.switch_cpus.data       406981                       # number of WriteReq accesses(hits+misses)
system.cpu.dcache.WriteReq_accesses::total       406981                       # number of WriteReq accesses(hits+misses)
system.cpu.dcache.WriteReq_miss_rate::.switch_cpus.data     0.026844                       # miss rate for WriteReq accesses
system.cpu.dcache.WriteReq_miss_rate::total     0.026844                       # miss rate for WriteReq accesses
system.cpu.dcache.WriteReq_avg_miss_latency::.switch_cpus.data 55543.560366                       # average WriteReq miss latency
system.cpu.dcache.WriteReq_avg_miss_latency::total 55543.560366                       # average WriteReq miss latency
system.cpu.dcache.WriteReq_mshr_hits::.switch_cpus.data          259                       # number of WriteReq MSHR hits
system.cpu.dcache.WriteReq_mshr_hits::total          259                       # number of WriteReq MSHR hits
system.cpu.dcache.WriteReq_mshr_misses::.switch_cpus.data        10666                       # number of WriteReq MSHR misses
system.cpu.dcache.WriteReq_mshr_misses::total        10666                       # number of WriteReq MSHR misses
system.cpu.dcache.WriteReq_mshr_miss_latency::.switch_cpus.data    590763978                       # number of WriteReq MSHR miss cycles
system.cpu.dcache.WriteReq_mshr_miss_latency::total    590763978                       # number of WriteReq MSHR miss cycles
system.cpu.dcache.WriteReq_mshr_miss_rate::.switch_cpus.data     0.026208                       # mshr miss rate for WriteReq accesses
system.cpu.dcache.WriteReq_mshr_miss_rate::total     0.026208                       # mshr miss rate for WriteReq accesses
system.cpu.dcache.WriteReq_avg_mshr_miss_latency::.switch_cpus.data 55387.584662                       # average WriteReq mshr miss latency
system.cpu.dcache.WriteReq_avg_mshr_miss_latency::total 55387.584662                       # average WriteReq mshr miss latency
system.cpu.dcache.tags.pwrStateResidencyTicks::UNDEFINED 190307446998000                       # Cumulative time (in ticks) in various power states
system.cpu.dcache.tags.tagsinuse             0.844214                       # Cycle average of tags in use
system.cpu.dcache.tags.total_refs            11550989                       # Total number of references to valid blocks.
system.cpu.dcache.tags.sampled_refs           6572151                       # Sample count of references to valid blocks.
system.cpu.dcache.tags.avg_refs              1.757566                       # Average number of references to valid blocks.
system.cpu.dcache.tags.warmup_cycle      190150534270000                       # Cycle when the warmup percentage was hit.
system.cpu.dcache.tags.occ_blocks::.cpu.data     0.000000                       # Average occupied blocks per requestor
system.cpu.dcache.tags.occ_blocks::.switch_cpus.data     0.844214                       # Average occupied blocks per requestor
system.cpu.dcache.tags.occ_percent::.cpu.data     0.000000                       # Average percentage of cache occupancy
system.cpu.dcache.tags.occ_percent::.switch_cpus.data     0.000824                       # Average percentage of cache occupancy
system.cpu.dcache.tags.occ_percent::total     0.000824                       # Average percentage of cache occupancy
system.cpu.dcache.tags.occ_task_id_blocks::1024         1024                       # Occupied blocks per task id
system.cpu.dcache.tags.age_task_id_blocks_1024::0          410                       # Occupied blocks per task id
system.cpu.dcache.tags.age_task_id_blocks_1024::1          610                       # Occupied blocks per task id
system.cpu.dcache.tags.age_task_id_blocks_1024::2            4                       # Occupied blocks per task id
system.cpu.dcache.tags.occ_task_id_percent::1024            1                       # Percentage of cache occupancy per task id
system.cpu.dcache.tags.tag_accesses          42283639                       # Number of tag accesses
system.cpu.dcache.tags.data_accesses         42283639                       # Number of data accesses

---------- End Simulation Statistics   ----------
