
---------- Begin Simulation Statistics ----------
final_tick                               92821664302000                       # Number of ticks from beginning of simulation (restored from checkpoints and never reset)
host_inst_rate                                  29225                       # Simulator instruction rate (inst/s)
host_mem_usage                                 827512                       # Number of bytes of host memory used
host_op_rate                                    47357                       # Simulator op (including micro ops) rate (op/s)
host_seconds                                   342.18                       # Real time elapsed on the host
host_tick_rate                              118560323                       # Simulator tick rate (ticks/s)
sim_freq                                 1000000000000                       # Frequency of simulated ticks
sim_insts                                    10000010                       # Number of instructions simulated
sim_ops                                      16204568                       # Number of ops (including micro ops) simulated
sim_seconds                                  0.040569                       # Number of seconds simulated
sim_ticks                                 40568875750                       # Number of ticks simulated
system.cpu.Branches                                 3                       # Number of branches fetched
system.cpu.committedInsts                          10                       # Number of instructions committed
system.cpu.committedOps                            18                       # Number of ops (including micro ops) committed
system.cpu.dtb.rdAccesses                           4                       # TLB accesses on read requests
system.cpu.dtb.rdMisses                             0                       # TLB misses on read requests
system.cpu.dtb.wrAccesses                           0                       # TLB accesses on write requests
system.cpu.dtb.wrMisses                             0                       # TLB misses on write requests
system.cpu.idle_fraction                            0                       # Percentage of idle cycles
system.cpu.itb.rdAccesses                           0                       # TLB accesses on read requests
system.cpu.itb.rdMisses                             0                       # TLB misses on read requests
system.cpu.itb.wrAccesses                          13                       # TLB accesses on write requests
system.cpu.itb.wrMisses                             0                       # TLB misses on write requests
system.cpu.not_idle_fraction                        1                       # Percentage of non-idle cycles
system.cpu.numCycles                               21                       # number of cpu cycles simulated
system.cpu.numWorkItemsCompleted                    0                       # number of work items this cpu completed
system.cpu.numWorkItemsStarted                      0                       # number of work items this cpu started
system.cpu.num_busy_cycles                         21                       # Number of busy cycles
system.cpu.num_cc_register_reads                   16                       # number of times the CC registers were read
system.cpu.num_cc_register_writes                   8                       # number of times the CC registers were written
system.cpu.num_conditional_control_insts            3                       # number of instructions that are conditional controls
system.cpu.num_fp_alu_accesses                      0                       # Number of float alu accesses
system.cpu.num_fp_insts                             0                       # number of float instructions
system.cpu.num_fp_register_reads                    0                       # number of times the floating registers were read
system.cpu.num_fp_register_writes                   0                       # number of times the floating registers were written
system.cpu.num_func_calls                           0                       # number of times a function call or return occured
system.cpu.num_idle_cycles                          0                       # Number of idle cycles
system.cpu.num_int_alu_accesses                    18                       # Number of integer alu accesses
system.cpu.num_int_insts                           18                       # number of integer instructions
system.cpu.num_int_register_reads                  33                       # number of times the integer registers were read
system.cpu.num_int_register_writes                 15                       # number of times the integer registers were written
system.cpu.num_load_insts                           4                       # Number of load instructions
system.cpu.num_mem_refs                             4                       # number of memory refs
system.cpu.num_store_insts                          0                       # Number of store instructions
system.cpu.num_vec_alu_accesses                     0                       # Number of vector alu accesses
system.cpu.num_vec_insts                            0                       # number of vector instructions
system.cpu.num_vec_register_reads                   0                       # number of times the vector registers were read
system.cpu.num_vec_register_writes                  0                       # number of times the vector registers were written
system.cpu.op_class::No_OpClass                     0      0.00%      0.00% # Class of executed instruction
system.cpu.op_class::IntAlu                        14     77.78%     77.78% # Class of executed instruction
system.cpu.op_class::IntMult                        0      0.00%     77.78% # Class of executed instruction
system.cpu.op_class::IntDiv                         0      0.00%     77.78% # Class of executed instruction
system.cpu.op_class::FloatAdd                       0      0.00%     77.78% # Class of executed instruction
system.cpu.op_class::FloatCmp                       0      0.00%     77.78% # Class of executed instruction
system.cpu.op_class::FloatCvt                       0      0.00%     77.78% # Class of executed instruction
system.cpu.op_class::FloatMult                      0      0.00%     77.78% # Class of executed instruction
system.cpu.op_class::FloatMultAcc                   0      0.00%     77.78% # Class of executed instruction
system.cpu.op_class::FloatDiv                       0      0.00%     77.78% # Class of executed instruction
system.cpu.op_class::FloatMisc                      0      0.00%     77.78% # Class of executed instruction
system.cpu.op_class::FloatSqrt                      0      0.00%     77.78% # Class of executed instruction
system.cpu.op_class::SimdAdd                        0      0.00%     77.78% # Class of executed instruction
system.cpu.op_class::SimdAddAcc                     0      0.00%     77.78% # Class of executed instruction
system.cpu.op_class::SimdAlu                        0      0.00%     77.78% # Class of executed instruction
system.cpu.op_class::SimdCmp                        0      0.00%     77.78% # Class of executed instruction
system.cpu.op_class::SimdCvt                        0      0.00%     77.78% # Class of executed instruction
system.cpu.op_class::SimdMisc                       0      0.00%     77.78% # Class of executed instruction
system.cpu.op_class::SimdMult                       0      0.00%     77.78% # Class of executed instruction
system.cpu.op_class::SimdMultAcc                    0      0.00%     77.78% # Class of executed instruction
system.cpu.op_class::SimdShift                      0      0.00%     77.78% # Class of executed instruction
system.cpu.op_class::SimdShiftAcc                   0      0.00%     77.78% # Class of executed instruction
system.cpu.op_class::SimdDiv                        0      0.00%     77.78% # Class of executed instruction
system.cpu.op_class::SimdSqrt                       0      0.00%     77.78% # Class of executed instruction
system.cpu.op_class::SimdFloatAdd                   0      0.00%     77.78% # Class of executed instruction
system.cpu.op_class::SimdFloatAlu                   0      0.00%     77.78% # Class of executed instruction
system.cpu.op_class::SimdFloatCmp                   0      0.00%     77.78% # Class of executed instruction
system.cpu.op_class::SimdFloatCvt                   0      0.00%     77.78% # Class of executed instruction
system.cpu.op_class::SimdFloatDiv                   0      0.00%     77.78% # Class of executed instruction
system.cpu.op_class::SimdFloatMisc                  0      0.00%     77.78% # Class of executed instruction
system.cpu.op_class::SimdFloatMult                  0      0.00%     77.78% # Class of executed instruction
system.cpu.op_class::SimdFloatMultAcc               0      0.00%     77.78% # Class of executed instruction
system.cpu.op_class::SimdFloatSqrt                  0      0.00%     77.78% # Class of executed instruction
system.cpu.op_class::SimdReduceAdd                  0      0.00%     77.78% # Class of executed instruction
system.cpu.op_class::SimdReduceAlu                  0      0.00%     77.78% # Class of executed instruction
system.cpu.op_class::SimdReduceCmp                  0      0.00%     77.78% # Class of executed instruction
system.cpu.op_class::SimdFloatReduceAdd             0      0.00%     77.78% # Class of executed instruction
system.cpu.op_class::SimdFloatReduceCmp             0      0.00%     77.78% # Class of executed instruction
system.cpu.op_class::SimdAes                        0      0.00%     77.78% # Class of executed instruction
system.cpu.op_class::SimdAesMix                     0      0.00%     77.78% # Class of executed instruction
system.cpu.op_class::SimdSha1Hash                   0      0.00%     77.78% # Class of executed instruction
system.cpu.op_class::SimdSha1Hash2                  0      0.00%     77.78% # Class of executed instruction
system.cpu.op_class::SimdSha256Hash                 0      0.00%     77.78% # Class of executed instruction
system.cpu.op_class::SimdSha256Hash2                0      0.00%     77.78% # Class of executed instruction
system.cpu.op_class::SimdShaSigma2                  0      0.00%     77.78% # Class of executed instruction
system.cpu.op_class::SimdShaSigma3                  0      0.00%     77.78% # Class of executed instruction
system.cpu.op_class::SimdPredAlu                    0      0.00%     77.78% # Class of executed instruction
system.cpu.op_class::MemRead                        4     22.22%    100.00% # Class of executed instruction
system.cpu.op_class::MemWrite                       0      0.00%    100.00% # Class of executed instruction
system.cpu.op_class::FloatMemRead                   0      0.00%    100.00% # Class of executed instruction
system.cpu.op_class::FloatMemWrite                  0      0.00%    100.00% # Class of executed instruction
system.cpu.op_class::IprAccess                      0      0.00%    100.00% # Class of executed instruction
system.cpu.op_class::InstPrefetch                   0      0.00%    100.00% # Class of executed instruction
system.cpu.op_class::total                         18                       # Class of executed instruction
system.cpu.workload.numSyscalls                     0                       # Number of system calls
system.membus.snoop_filter.hit_multi_requests            0                       # Number of requests hitting in the snoop filter with multiple (>1) holders of the requested data.
system.membus.snoop_filter.hit_multi_snoops            0                       # Number of snoops hitting in the snoop filter with multiple (>1) holders of the requested data.
system.membus.snoop_filter.hit_single_requests       798177                       # Number of requests hitting in the snoop filter with a single holder of the requested data.
system.membus.snoop_filter.hit_single_snoops            0                       # Number of snoops hitting in the snoop filter with a single holder of the requested data.
system.membus.snoop_filter.tot_requests       1600703                       # Total number of requests made to the snoop filter.
system.membus.snoop_filter.tot_snoops               0                       # Total number of snoops made to the snoop filter.
system.switch_cpus.branchPred.BTBCorrect            0                       # Number of correct BTB predictions (this stat may not work properly.
system.switch_cpus.branchPred.BTBHitPct      0.000000                       # BTB Hit Percentage
system.switch_cpus.branchPred.BTBHits               0                       # Number of BTB hits
system.switch_cpus.branchPred.BTBLookups      2042229                       # Number of BTB lookups
system.switch_cpus.branchPred.RASInCorrect            1                       # Number of incorrect RAS predictions.
system.switch_cpus.branchPred.condIncorrect       182183                       # Number of conditional branches incorrect
system.switch_cpus.branchPred.condPredicted      4332306                       # Number of conditional branches predicted
system.switch_cpus.branchPred.indirectHits      1601190                       # Number of indirect target hits.
system.switch_cpus.branchPred.indirectLookups      2042229                       # Number of indirect predictor lookups.
system.switch_cpus.branchPred.indirectMisses       441039                       # Number of indirect misses.
system.switch_cpus.branchPred.lookups         4340742                       # Number of BP lookups
system.switch_cpus.branchPred.usedRAS             215                       # Number of times the RAS was used to get a target.
system.switch_cpus.branchPredindirectMispredicted        29192                       # Number of mispredicted indirect branches.
system.switch_cpus.cc_regfile_reads          13103489                       # number of cc regfile reads
system.switch_cpus.cc_regfile_writes          9557478                       # number of cc regfile writes
system.switch_cpus.commit.amos                      0                       # Number of atomic instructions committed
system.switch_cpus.commit.branchMispredicts       182186                       # The number of times a branch was mispredicted
system.switch_cpus.commit.branches            1904056                       # Number of branches committed
system.switch_cpus.commit.bw_lim_events        716777                       # number cycles where commit BW limit reached
system.switch_cpus.commit.commitSquashedInsts     14840812                       # The number of squashed insts skipped by commit
system.switch_cpus.commit.committedInsts     10000000                       # Number of instructions committed
system.switch_cpus.commit.committedOps       16204550                       # Number of ops (including micro ops) committed
system.switch_cpus.commit.committed_per_cycle::samples     79065492                       # Number of insts commited each cycle
system.switch_cpus.commit.committed_per_cycle::mean     0.204951                       # Number of insts commited each cycle
system.switch_cpus.commit.committed_per_cycle::stdev     0.968840                       # Number of insts commited each cycle
system.switch_cpus.commit.committed_per_cycle::underflows            0      0.00%      0.00% # Number of insts commited each cycle
system.switch_cpus.commit.committed_per_cycle::0     73483602     92.94%     92.94% # Number of insts commited each cycle
system.switch_cpus.commit.committed_per_cycle::1      2096107      2.65%     95.59% # Number of insts commited each cycle
system.switch_cpus.commit.committed_per_cycle::2      1238305      1.57%     97.16% # Number of insts commited each cycle
system.switch_cpus.commit.committed_per_cycle::3       758090      0.96%     98.12% # Number of insts commited each cycle
system.switch_cpus.commit.committed_per_cycle::4       487981      0.62%     98.73% # Number of insts commited each cycle
system.switch_cpus.commit.committed_per_cycle::5       104246      0.13%     98.87% # Number of insts commited each cycle
system.switch_cpus.commit.committed_per_cycle::6       112495      0.14%     99.01% # Number of insts commited each cycle
system.switch_cpus.commit.committed_per_cycle::7        67889      0.09%     99.09% # Number of insts commited each cycle
system.switch_cpus.commit.committed_per_cycle::8       716777      0.91%    100.00% # Number of insts commited each cycle
system.switch_cpus.commit.committed_per_cycle::overflows            0      0.00%    100.00% # Number of insts commited each cycle
system.switch_cpus.commit.committed_per_cycle::min_value            0                       # Number of insts commited each cycle
system.switch_cpus.commit.committed_per_cycle::max_value            8                       # Number of insts commited each cycle
system.switch_cpus.commit.committed_per_cycle::total     79065492                       # Number of insts commited each cycle
system.switch_cpus.commit.fp_insts                  0                       # Number of committed floating point instructions.
system.switch_cpus.commit.function_calls            0                       # Number of function calls committed.
system.switch_cpus.commit.int_insts          16204186                       # Number of committed integer instructions.
system.switch_cpus.commit.loads               3567032                       # Number of loads committed
system.switch_cpus.commit.membars                   0                       # Number of memory barriers committed
system.switch_cpus.commit.op_class_0::No_OpClass            0      0.00%      0.00% # Class of committed instruction
system.switch_cpus.commit.op_class_0::IntAlu     11575705     71.43%     71.43% # Class of committed instruction
system.switch_cpus.commit.op_class_0::IntMult            0      0.00%     71.43% # Class of committed instruction
system.switch_cpus.commit.op_class_0::IntDiv            0      0.00%     71.43% # Class of committed instruction
system.switch_cpus.commit.op_class_0::FloatAdd            0      0.00%     71.43% # Class of committed instruction
system.switch_cpus.commit.op_class_0::FloatCmp            0      0.00%     71.43% # Class of committed instruction
system.switch_cpus.commit.op_class_0::FloatCvt            0      0.00%     71.43% # Class of committed instruction
system.switch_cpus.commit.op_class_0::FloatMult            0      0.00%     71.43% # Class of committed instruction
system.switch_cpus.commit.op_class_0::FloatMultAcc            0      0.00%     71.43% # Class of committed instruction
system.switch_cpus.commit.op_class_0::FloatDiv            0      0.00%     71.43% # Class of committed instruction
system.switch_cpus.commit.op_class_0::FloatMisc            0      0.00%     71.43% # Class of committed instruction
system.switch_cpus.commit.op_class_0::FloatSqrt            0      0.00%     71.43% # Class of committed instruction
system.switch_cpus.commit.op_class_0::SimdAdd            0      0.00%     71.43% # Class of committed instruction
system.switch_cpus.commit.op_class_0::SimdAddAcc            0      0.00%     71.43% # Class of committed instruction
system.switch_cpus.commit.op_class_0::SimdAlu            0      0.00%     71.43% # Class of committed instruction
system.switch_cpus.commit.op_class_0::SimdCmp            0      0.00%     71.43% # Class of committed instruction
system.switch_cpus.commit.op_class_0::SimdCvt            0      0.00%     71.43% # Class of committed instruction
system.switch_cpus.commit.op_class_0::SimdMisc            0      0.00%     71.43% # Class of committed instruction
system.switch_cpus.commit.op_class_0::SimdMult            0      0.00%     71.43% # Class of committed instruction
system.switch_cpus.commit.op_class_0::SimdMultAcc            0      0.00%     71.43% # Class of committed instruction
system.switch_cpus.commit.op_class_0::SimdShift            0      0.00%     71.43% # Class of committed instruction
system.switch_cpus.commit.op_class_0::SimdShiftAcc            0      0.00%     71.43% # Class of committed instruction
system.switch_cpus.commit.op_class_0::SimdDiv            0      0.00%     71.43% # Class of committed instruction
system.switch_cpus.commit.op_class_0::SimdSqrt            0      0.00%     71.43% # Class of committed instruction
system.switch_cpus.commit.op_class_0::SimdFloatAdd            0      0.00%     71.43% # Class of committed instruction
system.switch_cpus.commit.op_class_0::SimdFloatAlu            0      0.00%     71.43% # Class of committed instruction
system.switch_cpus.commit.op_class_0::SimdFloatCmp            0      0.00%     71.43% # Class of committed instruction
system.switch_cpus.commit.op_class_0::SimdFloatCvt            0      0.00%     71.43% # Class of committed instruction
system.switch_cpus.commit.op_class_0::SimdFloatDiv            0      0.00%     71.43% # Class of committed instruction
system.switch_cpus.commit.op_class_0::SimdFloatMisc            0      0.00%     71.43% # Class of committed instruction
system.switch_cpus.commit.op_class_0::SimdFloatMult            0      0.00%     71.43% # Class of committed instruction
system.switch_cpus.commit.op_class_0::SimdFloatMultAcc            0      0.00%     71.43% # Class of committed instruction
system.switch_cpus.commit.op_class_0::SimdFloatSqrt            0      0.00%     71.43% # Class of committed instruction
system.switch_cpus.commit.op_class_0::SimdReduceAdd            0      0.00%     71.43% # Class of committed instruction
system.switch_cpus.commit.op_class_0::SimdReduceAlu            0      0.00%     71.43% # Class of committed instruction
system.switch_cpus.commit.op_class_0::SimdReduceCmp            0      0.00%     71.43% # Class of committed instruction
system.switch_cpus.commit.op_class_0::SimdFloatReduceAdd            0      0.00%     71.43% # Class of committed instruction
system.switch_cpus.commit.op_class_0::SimdFloatReduceCmp            0      0.00%     71.43% # Class of committed instruction
system.switch_cpus.commit.op_class_0::SimdAes            0      0.00%     71.43% # Class of committed instruction
system.switch_cpus.commit.op_class_0::SimdAesMix            0      0.00%     71.43% # Class of committed instruction
system.switch_cpus.commit.op_class_0::SimdSha1Hash            0      0.00%     71.43% # Class of committed instruction
system.switch_cpus.commit.op_class_0::SimdSha1Hash2            0      0.00%     71.43% # Class of committed instruction
system.switch_cpus.commit.op_class_0::SimdSha256Hash            0      0.00%     71.43% # Class of committed instruction
system.switch_cpus.commit.op_class_0::SimdSha256Hash2            0      0.00%     71.43% # Class of committed instruction
system.switch_cpus.commit.op_class_0::SimdShaSigma2            0      0.00%     71.43% # Class of committed instruction
system.switch_cpus.commit.op_class_0::SimdShaSigma3            0      0.00%     71.43% # Class of committed instruction
system.switch_cpus.commit.op_class_0::SimdPredAlu            0      0.00%     71.43% # Class of committed instruction
system.switch_cpus.commit.op_class_0::MemRead      3567032     22.01%     93.45% # Class of committed instruction
system.switch_cpus.commit.op_class_0::MemWrite      1061813      6.55%    100.00% # Class of committed instruction
system.switch_cpus.commit.op_class_0::FloatMemRead            0      0.00%    100.00% # Class of committed instruction
system.switch_cpus.commit.op_class_0::FloatMemWrite            0      0.00%    100.00% # Class of committed instruction
system.switch_cpus.commit.op_class_0::IprAccess            0      0.00%    100.00% # Class of committed instruction
system.switch_cpus.commit.op_class_0::InstPrefetch            0      0.00%    100.00% # Class of committed instruction
system.switch_cpus.commit.op_class_0::total     16204550                       # Class of committed instruction
system.switch_cpus.commit.refs                4628845                       # Number of memory references committed
system.switch_cpus.commit.swp_count                 0                       # Number of s/w prefetches committed
system.switch_cpus.commit.vec_insts                 0                       # Number of committed Vector instructions.
system.switch_cpus.committedInsts            10000000                       # Number of Instructions Simulated
system.switch_cpus.committedOps              16204550                       # Number of Ops (including micro ops) Simulated
system.switch_cpus.cpi                       8.113773                       # CPI: Cycles Per Instruction
system.switch_cpus.cpi_total                 8.113773                       # CPI: Total CPI of All Threads
system.switch_cpus.decode.BlockedCycles      74954713                       # Number of cycles decode is blocked
system.switch_cpus.decode.DecodedInsts       32695413                       # Number of instructions handled by decode
system.switch_cpus.decode.IdleCycles          1615497                       # Number of cycles decode is idle
system.switch_cpus.decode.RunCycles           2761890                       # Number of cycles decode is running
system.switch_cpus.decode.SquashCycles         182391                       # Number of cycles decode is squashing
system.switch_cpus.decode.UnblockCycles       1622169                       # Number of cycles decode is unblocking
system.switch_cpus.dtb.rdAccesses             4801648                       # TLB accesses on read requests
system.switch_cpus.dtb.rdMisses                 44514                       # TLB misses on read requests
system.switch_cpus.dtb.wrAccesses             1573220                       # TLB accesses on write requests
system.switch_cpus.dtb.wrMisses                  1607                       # TLB misses on write requests
system.switch_cpus.fetch.Branches             4340742                       # Number of branches that fetch encountered
system.switch_cpus.fetch.CacheLines           2951430                       # Number of cache lines fetched
system.switch_cpus.fetch.Cycles              77884928                       # Number of cycles fetch has run and was not squashing or blocked
system.switch_cpus.fetch.IcacheSquashes         21847                       # Number of outstanding Icache misses that were squashed
system.switch_cpus.fetch.Insts               23764134                       # Number of instructions fetch has processed
system.switch_cpus.fetch.MiscStallCycles            2                       # Number of cycles fetch has spent waiting on interrupts, or bad addresses, or out of MSHRs
system.switch_cpus.fetch.PendingTrapStallCycles         1343                       # Number of stall cycles due to pending traps
system.switch_cpus.fetch.SquashCycles          364782                       # Number of cycles fetch has spent squashing
system.switch_cpus.fetch.branchRate          0.053498                       # Number of branch fetches per cycle
system.switch_cpus.fetch.icacheStallCycles      3068005                       # Number of cycles fetch is stalled on an Icache miss
system.switch_cpus.fetch.predictedBranches      1601405                       # Number of branches that fetch has predicted taken
system.switch_cpus.fetch.rate                0.292886                       # Number of inst fetches per cycle
system.switch_cpus.fetch.rateDist::samples     81136669                       # Number of instructions fetched each cycle (Total)
system.switch_cpus.fetch.rateDist::mean      0.469639                       # Number of instructions fetched each cycle (Total)
system.switch_cpus.fetch.rateDist::stdev     1.742398                       # Number of instructions fetched each cycle (Total)
system.switch_cpus.fetch.rateDist::underflows            0      0.00%      0.00% # Number of instructions fetched each cycle (Total)
system.switch_cpus.fetch.rateDist::0         74946789     92.37%     92.37% # Number of instructions fetched each cycle (Total)
system.switch_cpus.fetch.rateDist::1           126528      0.16%     92.53% # Number of instructions fetched each cycle (Total)
system.switch_cpus.fetch.rateDist::2           582918      0.72%     93.25% # Number of instructions fetched each cycle (Total)
system.switch_cpus.fetch.rateDist::3           319642      0.39%     93.64% # Number of instructions fetched each cycle (Total)
system.switch_cpus.fetch.rateDist::4           456240      0.56%     94.20% # Number of instructions fetched each cycle (Total)
system.switch_cpus.fetch.rateDist::5           387271      0.48%     94.68% # Number of instructions fetched each cycle (Total)
system.switch_cpus.fetch.rateDist::6          1144192      1.41%     96.09% # Number of instructions fetched each cycle (Total)
system.switch_cpus.fetch.rateDist::7           157521      0.19%     96.28% # Number of instructions fetched each cycle (Total)
system.switch_cpus.fetch.rateDist::8          3015568      3.72%    100.00% # Number of instructions fetched each cycle (Total)
system.switch_cpus.fetch.rateDist::overflows            0      0.00%    100.00% # Number of instructions fetched each cycle (Total)
system.switch_cpus.fetch.rateDist::min_value            0                       # Number of instructions fetched each cycle (Total)
system.switch_cpus.fetch.rateDist::max_value            8                       # Number of instructions fetched each cycle (Total)
system.switch_cpus.fetch.rateDist::total     81136669                       # Number of instructions fetched each cycle (Total)
system.switch_cpus.fp_regfile_writes               56                       # number of floating regfile writes
system.switch_cpus.idleCycles                    1061                       # Total number of cycles that the CPU has spent unscheduled due to idling
system.switch_cpus.iew.branchMispredicts       195533                       # Number of branch mispredicts detected at execute
system.switch_cpus.iew.exec_branches          2380774                       # Number of branches executed
system.switch_cpus.iew.exec_nop                     0                       # number of nop insts executed
system.switch_cpus.iew.exec_rate             0.303990                       # Inst execution rate
system.switch_cpus.iew.exec_refs              6855244                       # number of memory reference insts executed
system.switch_cpus.iew.exec_stores            1573220                       # Number of stores executed
system.switch_cpus.iew.exec_swp                     0                       # number of swp insts executed
system.switch_cpus.iew.iewBlockCycles        49739575                       # Number of cycles IEW is blocking
system.switch_cpus.iew.iewDispLoadInsts       6721710                       # Number of dispatched load instructions
system.switch_cpus.iew.iewDispNonSpecInsts            0                       # Number of dispatched non-speculative instructions
system.switch_cpus.iew.iewDispSquashedInsts         5792                       # Number of squashed instructions skipped by dispatch
system.switch_cpus.iew.iewDispStoreInsts      2251695                       # Number of dispatched store instructions
system.switch_cpus.iew.iewDispatchedInsts     31026879                       # Number of instructions dispatched to IQ
system.switch_cpus.iew.iewExecLoadInsts       5282024                       # Number of load instructions executed
system.switch_cpus.iew.iewExecSquashedInsts       242842                       # Number of squashed instructions skipped in execute
system.switch_cpus.iew.iewExecutedInsts      24665045                       # Number of executed instructions
system.switch_cpus.iew.iewIQFullEvents         452347                       # Number of times the IQ has become full, causing a stall
system.switch_cpus.iew.iewIdleCycles                0                       # Number of cycles IEW is idle
system.switch_cpus.iew.iewLSQFullEvents       1625800                       # Number of times the LSQ has become full, causing a stall
system.switch_cpus.iew.iewSquashCycles         182391                       # Number of cycles IEW is squashing
system.switch_cpus.iew.iewUnblockCycles       2662993                       # Number of cycles IEW is unblocking
system.switch_cpus.iew.lsq.thread0.blockedLoads            0                       # Number of blocked loads due to partial load-store forwarding
system.switch_cpus.iew.lsq.thread0.cacheBlocked       235204                       # Number of times an access to memory failed due to the cache being blocked
system.switch_cpus.iew.lsq.thread0.forwLoads        48325                       # Number of loads that had data forwarded from stores
system.switch_cpus.iew.lsq.thread0.ignoredResponses           56                       # Number of memory responses ignored because the instruction is squashed
system.switch_cpus.iew.lsq.thread0.invAddrLoads            0                       # Number of loads ignored due to an invalid address
system.switch_cpus.iew.lsq.thread0.invAddrSwpfs            0                       # Number of software prefetches ignored due to an invalid address
system.switch_cpus.iew.lsq.thread0.memOrderViolation          272                       # Number of memory ordering violations
system.switch_cpus.iew.lsq.thread0.rescheduledLoads            0                       # Number of loads that were rescheduled
system.switch_cpus.iew.lsq.thread0.squashedLoads      3154653                       # Number of loads squashed
system.switch_cpus.iew.lsq.thread0.squashedStores      1189882                       # Number of stores squashed
system.switch_cpus.iew.memOrderViolationEvents          272                       # Number of memory order violations
system.switch_cpus.iew.predictedNotTakenIncorrect        98879                       # Number of branches that were predicted not taken incorrectly
system.switch_cpus.iew.predictedTakenIncorrect        96654                       # Number of branches that were predicted taken incorrectly
system.switch_cpus.iew.wb_consumers          28377797                       # num instructions consuming a value
system.switch_cpus.iew.wb_count              23899357                       # cumulative count of insts written-back
system.switch_cpus.iew.wb_fanout             0.632267                       # average fanout of values written-back
system.switch_cpus.iew.wb_producers          17942352                       # num instructions producing a value
system.switch_cpus.iew.wb_rate               0.294553                       # insts written-back per cycle
system.switch_cpus.iew.wb_sent               23915616                       # cumulative count of insts sent to commit
system.switch_cpus.int_regfile_reads         33694980                       # number of integer regfile reads
system.switch_cpus.int_regfile_writes        19945470                       # number of integer regfile writes
system.switch_cpus.ipc                       0.123247                       # IPC: Instructions Per Cycle
system.switch_cpus.ipc_total                 0.123247                       # IPC: Total IPC of All Threads
system.switch_cpus.iq.FU_type_0::No_OpClass        16242      0.07%      0.07% # Type of FU issued
system.switch_cpus.iq.FU_type_0::IntAlu      17899742     71.86%     71.93% # Type of FU issued
system.switch_cpus.iq.FU_type_0::IntMult         2619      0.01%     71.94% # Type of FU issued
system.switch_cpus.iq.FU_type_0::IntDiv             0      0.00%     71.94% # Type of FU issued
system.switch_cpus.iq.FU_type_0::FloatAdd            0      0.00%     71.94% # Type of FU issued
system.switch_cpus.iq.FU_type_0::FloatCmp            0      0.00%     71.94% # Type of FU issued
system.switch_cpus.iq.FU_type_0::FloatCvt            0      0.00%     71.94% # Type of FU issued
system.switch_cpus.iq.FU_type_0::FloatMult            0      0.00%     71.94% # Type of FU issued
system.switch_cpus.iq.FU_type_0::FloatMultAcc            0      0.00%     71.94% # Type of FU issued
system.switch_cpus.iq.FU_type_0::FloatDiv            0      0.00%     71.94% # Type of FU issued
system.switch_cpus.iq.FU_type_0::FloatMisc            0      0.00%     71.94% # Type of FU issued
system.switch_cpus.iq.FU_type_0::FloatSqrt            0      0.00%     71.94% # Type of FU issued
system.switch_cpus.iq.FU_type_0::SimdAdd            0      0.00%     71.94% # Type of FU issued
system.switch_cpus.iq.FU_type_0::SimdAddAcc            0      0.00%     71.94% # Type of FU issued
system.switch_cpus.iq.FU_type_0::SimdAlu            0      0.00%     71.94% # Type of FU issued
system.switch_cpus.iq.FU_type_0::SimdCmp            0      0.00%     71.94% # Type of FU issued
system.switch_cpus.iq.FU_type_0::SimdCvt            0      0.00%     71.94% # Type of FU issued
system.switch_cpus.iq.FU_type_0::SimdMisc            0      0.00%     71.94% # Type of FU issued
system.switch_cpus.iq.FU_type_0::SimdMult            0      0.00%     71.94% # Type of FU issued
system.switch_cpus.iq.FU_type_0::SimdMultAcc            0      0.00%     71.94% # Type of FU issued
system.switch_cpus.iq.FU_type_0::SimdShift            0      0.00%     71.94% # Type of FU issued
system.switch_cpus.iq.FU_type_0::SimdShiftAcc            0      0.00%     71.94% # Type of FU issued
system.switch_cpus.iq.FU_type_0::SimdDiv            0      0.00%     71.94% # Type of FU issued
system.switch_cpus.iq.FU_type_0::SimdSqrt            0      0.00%     71.94% # Type of FU issued
system.switch_cpus.iq.FU_type_0::SimdFloatAdd            0      0.00%     71.94% # Type of FU issued
system.switch_cpus.iq.FU_type_0::SimdFloatAlu            0      0.00%     71.94% # Type of FU issued
system.switch_cpus.iq.FU_type_0::SimdFloatCmp            0      0.00%     71.94% # Type of FU issued
system.switch_cpus.iq.FU_type_0::SimdFloatCvt            0      0.00%     71.94% # Type of FU issued
system.switch_cpus.iq.FU_type_0::SimdFloatDiv            0      0.00%     71.94% # Type of FU issued
system.switch_cpus.iq.FU_type_0::SimdFloatMisc            0      0.00%     71.94% # Type of FU issued
system.switch_cpus.iq.FU_type_0::SimdFloatMult            0      0.00%     71.94% # Type of FU issued
system.switch_cpus.iq.FU_type_0::SimdFloatMultAcc            0      0.00%     71.94% # Type of FU issued
system.switch_cpus.iq.FU_type_0::SimdFloatSqrt            0      0.00%     71.94% # Type of FU issued
system.switch_cpus.iq.FU_type_0::SimdReduceAdd            0      0.00%     71.94% # Type of FU issued
system.switch_cpus.iq.FU_type_0::SimdReduceAlu            0      0.00%     71.94% # Type of FU issued
system.switch_cpus.iq.FU_type_0::SimdReduceCmp            0      0.00%     71.94% # Type of FU issued
system.switch_cpus.iq.FU_type_0::SimdFloatReduceAdd            0      0.00%     71.94% # Type of FU issued
system.switch_cpus.iq.FU_type_0::SimdFloatReduceCmp            0      0.00%     71.94% # Type of FU issued
system.switch_cpus.iq.FU_type_0::SimdAes            0      0.00%     71.94% # Type of FU issued
system.switch_cpus.iq.FU_type_0::SimdAesMix            0      0.00%     71.94% # Type of FU issued
system.switch_cpus.iq.FU_type_0::SimdSha1Hash            0      0.00%     71.94% # Type of FU issued
system.switch_cpus.iq.FU_type_0::SimdSha1Hash2            0      0.00%     71.94% # Type of FU issued
system.switch_cpus.iq.FU_type_0::SimdSha256Hash            0      0.00%     71.94% # Type of FU issued
system.switch_cpus.iq.FU_type_0::SimdSha256Hash2            0      0.00%     71.94% # Type of FU issued
system.switch_cpus.iq.FU_type_0::SimdShaSigma2            0      0.00%     71.94% # Type of FU issued
system.switch_cpus.iq.FU_type_0::SimdShaSigma3            0      0.00%     71.94% # Type of FU issued
system.switch_cpus.iq.FU_type_0::SimdPredAlu            0      0.00%     71.94% # Type of FU issued
system.switch_cpus.iq.FU_type_0::MemRead      5343837     21.45%     93.39% # Type of FU issued
system.switch_cpus.iq.FU_type_0::MemWrite      1645449      6.61%    100.00% # Type of FU issued
system.switch_cpus.iq.FU_type_0::FloatMemRead            0      0.00%    100.00% # Type of FU issued
system.switch_cpus.iq.FU_type_0::FloatMemWrite            0      0.00%    100.00% # Type of FU issued
system.switch_cpus.iq.FU_type_0::IprAccess            0      0.00%    100.00% # Type of FU issued
system.switch_cpus.iq.FU_type_0::InstPrefetch            0      0.00%    100.00% # Type of FU issued
system.switch_cpus.iq.FU_type_0::total       24907889                       # Type of FU issued
system.switch_cpus.iq.fp_alu_accesses               0                       # Number of floating point alu accesses
system.switch_cpus.iq.fp_inst_queue_reads            0                       # Number of floating instruction queue reads
system.switch_cpus.iq.fp_inst_queue_wakeup_accesses            0                       # Number of floating instruction queue wakeup accesses
system.switch_cpus.iq.fp_inst_queue_writes            0                       # Number of floating instruction queue writes
system.switch_cpus.iq.fu_busy_cnt              282177                       # FU busy when requested
system.switch_cpus.iq.fu_busy_rate           0.011329                       # FU busy rate (busy events/executed inst)
system.switch_cpus.iq.fu_full::No_OpClass            0      0.00%      0.00% # attempts to use FU when none available
system.switch_cpus.iq.fu_full::IntAlu           73557     26.07%     26.07% # attempts to use FU when none available
system.switch_cpus.iq.fu_full::IntMult              0      0.00%     26.07% # attempts to use FU when none available
system.switch_cpus.iq.fu_full::IntDiv               0      0.00%     26.07% # attempts to use FU when none available
system.switch_cpus.iq.fu_full::FloatAdd             0      0.00%     26.07% # attempts to use FU when none available
system.switch_cpus.iq.fu_full::FloatCmp             0      0.00%     26.07% # attempts to use FU when none available
system.switch_cpus.iq.fu_full::FloatCvt             0      0.00%     26.07% # attempts to use FU when none available
system.switch_cpus.iq.fu_full::FloatMult            0      0.00%     26.07% # attempts to use FU when none available
system.switch_cpus.iq.fu_full::FloatMultAcc            0      0.00%     26.07% # attempts to use FU when none available
system.switch_cpus.iq.fu_full::FloatDiv             0      0.00%     26.07% # attempts to use FU when none available
system.switch_cpus.iq.fu_full::FloatMisc            0      0.00%     26.07% # attempts to use FU when none available
system.switch_cpus.iq.fu_full::FloatSqrt            0      0.00%     26.07% # attempts to use FU when none available
system.switch_cpus.iq.fu_full::SimdAdd              0      0.00%     26.07% # attempts to use FU when none available
system.switch_cpus.iq.fu_full::SimdAddAcc            0      0.00%     26.07% # attempts to use FU when none available
system.switch_cpus.iq.fu_full::SimdAlu              0      0.00%     26.07% # attempts to use FU when none available
system.switch_cpus.iq.fu_full::SimdCmp              0      0.00%     26.07% # attempts to use FU when none available
system.switch_cpus.iq.fu_full::SimdCvt              0      0.00%     26.07% # attempts to use FU when none available
system.switch_cpus.iq.fu_full::SimdMisc             0      0.00%     26.07% # attempts to use FU when none available
system.switch_cpus.iq.fu_full::SimdMult             0      0.00%     26.07% # attempts to use FU when none available
system.switch_cpus.iq.fu_full::SimdMultAcc            0      0.00%     26.07% # attempts to use FU when none available
system.switch_cpus.iq.fu_full::SimdShift            0      0.00%     26.07% # attempts to use FU when none available
system.switch_cpus.iq.fu_full::SimdShiftAcc            0      0.00%     26.07% # attempts to use FU when none available
system.switch_cpus.iq.fu_full::SimdDiv              0      0.00%     26.07% # attempts to use FU when none available
system.switch_cpus.iq.fu_full::SimdSqrt             0      0.00%     26.07% # attempts to use FU when none available
system.switch_cpus.iq.fu_full::SimdFloatAdd            0      0.00%     26.07% # attempts to use FU when none available
system.switch_cpus.iq.fu_full::SimdFloatAlu            0      0.00%     26.07% # attempts to use FU when none available
system.switch_cpus.iq.fu_full::SimdFloatCmp            0      0.00%     26.07% # attempts to use FU when none available
system.switch_cpus.iq.fu_full::SimdFloatCvt            0      0.00%     26.07% # attempts to use FU when none available
system.switch_cpus.iq.fu_full::SimdFloatDiv            0      0.00%     26.07% # attempts to use FU when none available
system.switch_cpus.iq.fu_full::SimdFloatMisc            0      0.00%     26.07% # attempts to use FU when none available
system.switch_cpus.iq.fu_full::SimdFloatMult            0      0.00%     26.07% # attempts to use FU when none available
system.switch_cpus.iq.fu_full::SimdFloatMultAcc            0      0.00%     26.07% # attempts to use FU when none available
system.switch_cpus.iq.fu_full::SimdFloatSqrt            0      0.00%     26.07% # attempts to use FU when none available
system.switch_cpus.iq.fu_full::SimdReduceAdd            0      0.00%     26.07% # attempts to use FU when none available
system.switch_cpus.iq.fu_full::SimdReduceAlu            0      0.00%     26.07% # attempts to use FU when none available
system.switch_cpus.iq.fu_full::SimdReduceCmp            0      0.00%     26.07% # attempts to use FU when none available
system.switch_cpus.iq.fu_full::SimdFloatReduceAdd            0      0.00%     26.07% # attempts to use FU when none available
system.switch_cpus.iq.fu_full::SimdFloatReduceCmp            0      0.00%     26.07% # attempts to use FU when none available
system.switch_cpus.iq.fu_full::SimdAes              0      0.00%     26.07% # attempts to use FU when none available
system.switch_cpus.iq.fu_full::SimdAesMix            0      0.00%     26.07% # attempts to use FU when none available
system.switch_cpus.iq.fu_full::SimdSha1Hash            0      0.00%     26.07% # attempts to use FU when none available
system.switch_cpus.iq.fu_full::SimdSha1Hash2            0      0.00%     26.07% # attempts to use FU when none available
system.switch_cpus.iq.fu_full::SimdSha256Hash            0      0.00%     26.07% # attempts to use FU when none available
system.switch_cpus.iq.fu_full::SimdSha256Hash2            0      0.00%     26.07% # attempts to use FU when none available
system.switch_cpus.iq.fu_full::SimdShaSigma2            0      0.00%     26.07% # attempts to use FU when none available
system.switch_cpus.iq.fu_full::SimdShaSigma3            0      0.00%     26.07% # attempts to use FU when none available
system.switch_cpus.iq.fu_full::SimdPredAlu            0      0.00%     26.07% # attempts to use FU when none available
system.switch_cpus.iq.fu_full::MemRead          76615     27.15%     53.22% # attempts to use FU when none available
system.switch_cpus.iq.fu_full::MemWrite        132005     46.78%    100.00% # attempts to use FU when none available
system.switch_cpus.iq.fu_full::FloatMemRead            0      0.00%    100.00% # attempts to use FU when none available
system.switch_cpus.iq.fu_full::FloatMemWrite            0      0.00%    100.00% # attempts to use FU when none available
system.switch_cpus.iq.fu_full::IprAccess            0      0.00%    100.00% # attempts to use FU when none available
system.switch_cpus.iq.fu_full::InstPrefetch            0      0.00%    100.00% # attempts to use FU when none available
system.switch_cpus.iq.int_alu_accesses       25173824                       # Number of integer alu accesses
system.switch_cpus.iq.int_inst_queue_reads    131260280                       # Number of integer instruction queue reads
system.switch_cpus.iq.int_inst_queue_wakeup_accesses     23899357                       # Number of integer instruction queue wakeup accesses
system.switch_cpus.iq.int_inst_queue_writes     45849377                       # Number of integer instruction queue writes
system.switch_cpus.iq.iqInstsAdded           31026879                       # Number of instructions added to the IQ (excludes non-spec)
system.switch_cpus.iq.iqInstsIssued          24907889                       # Number of instructions issued
system.switch_cpus.iq.iqSquashedInstsExamined     14822238                       # Number of squashed instructions iterated over during squash; mainly for profiling
system.switch_cpus.iq.iqSquashedInstsIssued        25658                       # Number of squashed instructions issued
system.switch_cpus.iq.iqSquashedOperandsExamined     25086989                       # Number of squashed operands that are examined and possibly removed from graph
system.switch_cpus.iq.issued_per_cycle::samples     81136669                       # Number of insts issued each cycle
system.switch_cpus.iq.issued_per_cycle::mean     0.306987                       # Number of insts issued each cycle
system.switch_cpus.iq.issued_per_cycle::stdev     0.969683                       # Number of insts issued each cycle
system.switch_cpus.iq.issued_per_cycle::underflows            0      0.00%      0.00% # Number of insts issued each cycle
system.switch_cpus.iq.issued_per_cycle::0     70119051     86.42%     86.42% # Number of insts issued each cycle
system.switch_cpus.iq.issued_per_cycle::1      4932189      6.08%     92.50% # Number of insts issued each cycle
system.switch_cpus.iq.issued_per_cycle::2      2427889      2.99%     95.49% # Number of insts issued each cycle
system.switch_cpus.iq.issued_per_cycle::3      1658527      2.04%     97.54% # Number of insts issued each cycle
system.switch_cpus.iq.issued_per_cycle::4       878219      1.08%     98.62% # Number of insts issued each cycle
system.switch_cpus.iq.issued_per_cycle::5       489432      0.60%     99.22% # Number of insts issued each cycle
system.switch_cpus.iq.issued_per_cycle::6       335986      0.41%     99.64% # Number of insts issued each cycle
system.switch_cpus.iq.issued_per_cycle::7       194619      0.24%     99.88% # Number of insts issued each cycle
system.switch_cpus.iq.issued_per_cycle::8       100757      0.12%    100.00% # Number of insts issued each cycle
system.switch_cpus.iq.issued_per_cycle::overflows            0      0.00%    100.00% # Number of insts issued each cycle
system.switch_cpus.iq.issued_per_cycle::min_value            0                       # Number of insts issued each cycle
system.switch_cpus.iq.issued_per_cycle::max_value            8                       # Number of insts issued each cycle
system.switch_cpus.iq.issued_per_cycle::total     81136669                       # Number of insts issued each cycle
system.switch_cpus.iq.rate                   0.306983                       # Inst issue rate
system.switch_cpus.iq.vec_alu_accesses              0                       # Number of vector alu accesses
system.switch_cpus.iq.vec_inst_queue_reads            0                       # Number of vector instruction queue reads
system.switch_cpus.iq.vec_inst_queue_wakeup_accesses            0                       # Number of vector instruction queue wakeup accesses
system.switch_cpus.iq.vec_inst_queue_writes            0                       # Number of vector instruction queue writes
system.switch_cpus.itb.rdAccesses                   0                       # TLB accesses on read requests
system.switch_cpus.itb.rdMisses                     0                       # TLB misses on read requests
system.switch_cpus.itb.wrAccesses             2951647                       # TLB accesses on write requests
system.switch_cpus.itb.wrMisses                   219                       # TLB misses on write requests
system.switch_cpus.memDep0.conflictingLoads       383170                       # Number of conflicting loads.
system.switch_cpus.memDep0.conflictingStores       615436                       # Number of conflicting stores.
system.switch_cpus.memDep0.insertedLoads      6721710                       # Number of loads inserted to the mem dependence unit.
system.switch_cpus.memDep0.insertedStores      2251695                       # Number of stores inserted to the mem dependence unit.
system.switch_cpus.misc_regfile_reads        12761354                       # number of misc regfile reads
system.switch_cpus.misc_regfile_writes              1                       # number of misc regfile writes
system.switch_cpus.numCycles                 81137730                       # number of cpu cycles simulated
system.switch_cpus.numWorkItemsCompleted            0                       # number of work items this cpu completed
system.switch_cpus.numWorkItemsStarted              0                       # number of work items this cpu started
system.switch_cpus.rename.BlockCycles        66006050                       # Number of cycles rename is blocking
system.switch_cpus.rename.CommittedMaps      20622243                       # Number of HB maps that are committed
system.switch_cpus.rename.IQFullEvents        5295600                       # Number of times rename has blocked due to IQ full
system.switch_cpus.rename.IdleCycles          2101166                       # Number of cycles rename is idle
system.switch_cpus.rename.LQFullEvents        1540344                       # Number of times rename has blocked due to LQ full
system.switch_cpus.rename.ROBFullEvents        217147                       # Number of times rename has blocked due to ROB full
system.switch_cpus.rename.RenameLookups      84490564                       # Number of register rename lookups that rename has made
system.switch_cpus.rename.RenamedInsts       31791810                       # Number of instructions processed by rename
system.switch_cpus.rename.RenamedOperands     40157605                       # Number of destination operands rename has renamed
system.switch_cpus.rename.RunCycles           3550932                       # Number of cycles rename is running
system.switch_cpus.rename.SQFullEvents        2624050                       # Number of times rename has blocked due to SQ full
system.switch_cpus.rename.SquashCycles         182391                       # Number of cycles rename is squashing
system.switch_cpus.rename.UnblockCycles       9296121                       # Number of cycles rename is unblocking
system.switch_cpus.rename.UndoneMaps         19535238                       # Number of HB maps that are undone due to squashing
system.switch_cpus.rename.int_rename_lookups     48047408                       # Number of integer rename lookups
system.switch_cpus.rename.serializeStallCycles            0                       # count of cycles rename stalled for serializing inst
system.switch_cpus.rename.serializingInsts            0                       # count of serializing insts renamed
system.switch_cpus.rename.skidInsts          10151004                       # count of insts added to the skid buffer
system.switch_cpus.rename.tempSerializingInsts            0                       # count of temporary serializing insts renamed
system.switch_cpus.rob.rob_reads            109394077                       # The number of ROB reads
system.switch_cpus.rob.rob_writes            64165643                       # The number of ROB writes
system.switch_cpus.timesIdled                      19                       # Number of times that the entire CPU went into an idle state and unscheduled itself
system.tol2bus.snoop_filter.hit_multi_requests            0                       # Number of requests hitting in the snoop filter with multiple (>1) holders of the requested data.
system.tol2bus.snoop_filter.hit_multi_snoops            0                       # Number of snoops hitting in the snoop filter with multiple (>1) holders of the requested data.
system.tol2bus.snoop_filter.hit_single_requests      2091353                       # Number of requests hitting in the snoop filter with a single holder of the requested data.
system.tol2bus.snoop_filter.hit_single_snoops       555571                       # Number of snoops hitting in the snoop filter with a single holder of the requested data.
system.tol2bus.snoop_filter.tot_requests      4183750                       # Total number of requests made to the snoop filter.
system.tol2bus.snoop_filter.tot_snoops         555571                       # Total number of snoops made to the snoop filter.
system.membus.pwrStateResidencyTicks::UNDEFINED 92821664302000                       # Cumulative time (in ticks) in various power states
system.membus.trans_dist::ReadResp             723244                       # Transaction distribution
system.membus.trans_dist::WritebackDirty       137937                       # Transaction distribution
system.membus.trans_dist::CleanEvict           660240                       # Transaction distribution
system.membus.trans_dist::ReadExReq             79281                       # Transaction distribution
system.membus.trans_dist::ReadExResp            79281                       # Transaction distribution
system.membus.trans_dist::ReadSharedReq        723245                       # Transaction distribution
system.membus.pkt_count_system.l2.mem_side::system.mem_ctrls.port      2403228                       # Packet count per connected master and slave (bytes)
system.membus.pkt_count_system.l2.mem_side::total      2403228                       # Packet count per connected master and slave (bytes)
system.membus.pkt_count::total                2403228                       # Packet count per connected master and slave (bytes)
system.membus.pkt_size_system.l2.mem_side::system.mem_ctrls.port     60189568                       # Cumulative packet size per connected master and slave (bytes)
system.membus.pkt_size_system.l2.mem_side::total     60189568                       # Cumulative packet size per connected master and slave (bytes)
system.membus.pkt_size::total                60189568                       # Cumulative packet size per connected master and slave (bytes)
system.membus.snoops                                0                       # Total snoops (count)
system.membus.snoopTraffic                          0                       # Total snoop traffic (bytes)
system.membus.snoop_fanout::samples            802526                       # Request fanout histogram
system.membus.snoop_fanout::mean                    0                       # Request fanout histogram
system.membus.snoop_fanout::stdev                   0                       # Request fanout histogram
system.membus.snoop_fanout::underflows              0      0.00%      0.00% # Request fanout histogram
system.membus.snoop_fanout::0                  802526    100.00%    100.00% # Request fanout histogram
system.membus.snoop_fanout::1                       0      0.00%    100.00% # Request fanout histogram
system.membus.snoop_fanout::overflows               0      0.00%    100.00% # Request fanout histogram
system.membus.snoop_fanout::min_value               0                       # Request fanout histogram
system.membus.snoop_fanout::max_value               0                       # Request fanout histogram
system.membus.snoop_fanout::total              802526                       # Request fanout histogram
system.membus.reqLayer2.occupancy          2386966000                       # Layer occupancy (ticks)
system.membus.reqLayer2.utilization               5.9                       # Layer utilization (%)
system.membus.respLayer1.occupancy         4225225250                       # Layer occupancy (ticks)
system.membus.respLayer1.utilization             10.4                       # Layer utilization (%)
system.switch_cpus.pwrStateResidencyTicks::OFF  40568875750                       # Cumulative time (in ticks) in various power states
system.switch_cpus.dtb.walker.pwrStateResidencyTicks::UNDEFINED 92821664302000                       # Cumulative time (in ticks) in various power states
system.switch_cpus.itb.walker.pwrStateResidencyTicks::UNDEFINED 92821664302000                       # Cumulative time (in ticks) in various power states
system.tol2bus.pwrStateResidencyTicks::UNDEFINED 92821664302000                       # Cumulative time (in ticks) in various power states
system.tol2bus.trans_dist::ReadResp           2012648                       # Transaction distribution
system.tol2bus.trans_dist::WritebackDirty       281410                       # Transaction distribution
system.tol2bus.trans_dist::CleanEvict         2699740                       # Transaction distribution
system.tol2bus.trans_dist::ReadExReq            79747                       # Transaction distribution
system.tol2bus.trans_dist::ReadExResp           79747                       # Transaction distribution
system.tol2bus.trans_dist::ReadCleanReq            18                       # Transaction distribution
system.tol2bus.trans_dist::ReadSharedReq      2012632                       # Transaction distribution
system.tol2bus.pkt_count_system.cpu.icache.mem_side::system.l2.cpu_side           36                       # Packet count per connected master and slave (bytes)
system.tol2bus.pkt_count_system.cpu.dcache.mem_side::system.l2.cpu_side      6276109                       # Packet count per connected master and slave (bytes)
system.tol2bus.pkt_count::total               6276145                       # Packet count per connected master and slave (bytes)
system.tol2bus.pkt_size_system.cpu.icache.mem_side::system.l2.cpu_side         1152                       # Cumulative packet size per connected master and slave (bytes)
system.tol2bus.pkt_size_system.cpu.dcache.mem_side::system.l2.cpu_side    143094400                       # Cumulative packet size per connected master and slave (bytes)
system.tol2bus.pkt_size::total              143095552                       # Cumulative packet size per connected master and slave (bytes)
system.tol2bus.snoops                          889797                       # Total snoops (count)
system.tol2bus.snoopTraffic                   8827968                       # Total snoop traffic (bytes)
system.tol2bus.snoop_fanout::samples          2982194                       # Request fanout histogram
system.tol2bus.snoop_fanout::mean            0.186296                       # Request fanout histogram
system.tol2bus.snoop_fanout::stdev           0.389345                       # Request fanout histogram
system.tol2bus.snoop_fanout::underflows             0      0.00%      0.00% # Request fanout histogram
system.tol2bus.snoop_fanout::0                2426623     81.37%     81.37% # Request fanout histogram
system.tol2bus.snoop_fanout::1                 555571     18.63%    100.00% # Request fanout histogram
system.tol2bus.snoop_fanout::2                      0      0.00%    100.00% # Request fanout histogram
system.tol2bus.snoop_fanout::3                      0      0.00%    100.00% # Request fanout histogram
system.tol2bus.snoop_fanout::4                      0      0.00%    100.00% # Request fanout histogram
system.tol2bus.snoop_fanout::overflows              0      0.00%    100.00% # Request fanout histogram
system.tol2bus.snoop_fanout::min_value              0                       # Request fanout histogram
system.tol2bus.snoop_fanout::max_value              1                       # Request fanout histogram
system.tol2bus.snoop_fanout::total            2982194                       # Request fanout histogram
system.tol2bus.reqLayer0.occupancy         2235346000                       # Layer occupancy (ticks)
system.tol2bus.reqLayer0.utilization              5.5                       # Layer utilization (%)
system.tol2bus.respLayer1.occupancy        3138561000                       # Layer occupancy (ticks)
system.tol2bus.respLayer1.utilization             7.7                       # Layer utilization (%)
system.tol2bus.respLayer0.occupancy             25500                       # Layer occupancy (ticks)
system.tol2bus.respLayer0.utilization             0.0                       # Layer utilization (%)
system.voltage_domain.voltage                       1                       # Voltage in Volts
system.clk_domain.clock                          1000                       # Clock period in ticks
system.l2.pwrStateResidencyTicks::UNDEFINED 92821664302000                       # Cumulative time (in ticks) in various power states
system.l2.demand_hits::.switch_cpus.data      1289871                       # number of demand (read+write) hits
system.l2.demand_hits::total                  1289871                       # number of demand (read+write) hits
system.l2.overall_hits::.switch_cpus.data      1289871                       # number of overall hits
system.l2.overall_hits::total                 1289871                       # number of overall hits
system.l2.demand_misses::.cpu.inst                  1                       # number of demand (read+write) misses
system.l2.demand_misses::.cpu.data                  3                       # number of demand (read+write) misses
system.l2.demand_misses::.switch_cpus.inst           17                       # number of demand (read+write) misses
system.l2.demand_misses::.switch_cpus.data       802505                       # number of demand (read+write) misses
system.l2.demand_misses::total                 802526                       # number of demand (read+write) misses
system.l2.overall_misses::.cpu.inst                 1                       # number of overall misses
system.l2.overall_misses::.cpu.data                 3                       # number of overall misses
system.l2.overall_misses::.switch_cpus.inst           17                       # number of overall misses
system.l2.overall_misses::.switch_cpus.data       802505                       # number of overall misses
system.l2.overall_misses::total                802526                       # number of overall misses
system.l2.demand_miss_latency::.switch_cpus.inst      1515000                       # number of demand (read+write) miss cycles
system.l2.demand_miss_latency::.switch_cpus.data  64312151000                       # number of demand (read+write) miss cycles
system.l2.demand_miss_latency::total      64313666000                       # number of demand (read+write) miss cycles
system.l2.overall_miss_latency::.switch_cpus.inst      1515000                       # number of overall miss cycles
system.l2.overall_miss_latency::.switch_cpus.data  64312151000                       # number of overall miss cycles
system.l2.overall_miss_latency::total     64313666000                       # number of overall miss cycles
system.l2.demand_accesses::.cpu.inst                1                       # number of demand (read+write) accesses
system.l2.demand_accesses::.cpu.data                3                       # number of demand (read+write) accesses
system.l2.demand_accesses::.switch_cpus.inst           17                       # number of demand (read+write) accesses
system.l2.demand_accesses::.switch_cpus.data      2092376                       # number of demand (read+write) accesses
system.l2.demand_accesses::total              2092397                       # number of demand (read+write) accesses
system.l2.overall_accesses::.cpu.inst               1                       # number of overall (read+write) accesses
system.l2.overall_accesses::.cpu.data               3                       # number of overall (read+write) accesses
system.l2.overall_accesses::.switch_cpus.inst           17                       # number of overall (read+write) accesses
system.l2.overall_accesses::.switch_cpus.data      2092376                       # number of overall (read+write) accesses
system.l2.overall_accesses::total             2092397                       # number of overall (read+write) accesses
system.l2.demand_miss_rate::.cpu.inst               1                       # miss rate for demand accesses
system.l2.demand_miss_rate::.cpu.data               1                       # miss rate for demand accesses
system.l2.demand_miss_rate::.switch_cpus.inst            1                       # miss rate for demand accesses
system.l2.demand_miss_rate::.switch_cpus.data     0.383538                       # miss rate for demand accesses
system.l2.demand_miss_rate::total            0.383544                       # miss rate for demand accesses
system.l2.overall_miss_rate::.cpu.inst              1                       # miss rate for overall accesses
system.l2.overall_miss_rate::.cpu.data              1                       # miss rate for overall accesses
system.l2.overall_miss_rate::.switch_cpus.inst            1                       # miss rate for overall accesses
system.l2.overall_miss_rate::.switch_cpus.data     0.383538                       # miss rate for overall accesses
system.l2.overall_miss_rate::total           0.383544                       # miss rate for overall accesses
system.l2.demand_avg_miss_latency::.switch_cpus.inst 89117.647059                       # average overall miss latency
system.l2.demand_avg_miss_latency::.switch_cpus.data 80139.252715                       # average overall miss latency
system.l2.demand_avg_miss_latency::total 80139.043470                       # average overall miss latency
system.l2.overall_avg_miss_latency::.switch_cpus.inst 89117.647059                       # average overall miss latency
system.l2.overall_avg_miss_latency::.switch_cpus.data 80139.252715                       # average overall miss latency
system.l2.overall_avg_miss_latency::total 80139.043470                       # average overall miss latency
system.l2.blocked_cycles::no_mshrs                  0                       # number of cycles access was blocked
system.l2.blocked_cycles::no_targets                0                       # number of cycles access was blocked
system.l2.blocked::no_mshrs                         0                       # number of cycles access was blocked
system.l2.blocked::no_targets                       0                       # number of cycles access was blocked
system.l2.avg_blocked_cycles::no_mshrs            nan                       # average number of cycles each access was blocked
system.l2.avg_blocked_cycles::no_targets          nan                       # average number of cycles each access was blocked
system.l2.writebacks::.writebacks              137937                       # number of writebacks
system.l2.writebacks::total                    137937                       # number of writebacks
system.l2.demand_mshr_misses::.switch_cpus.inst           17                       # number of demand (read+write) MSHR misses
system.l2.demand_mshr_misses::.switch_cpus.data       802505                       # number of demand (read+write) MSHR misses
system.l2.demand_mshr_misses::total            802522                       # number of demand (read+write) MSHR misses
system.l2.overall_mshr_misses::.switch_cpus.inst           17                       # number of overall MSHR misses
system.l2.overall_mshr_misses::.switch_cpus.data       802505                       # number of overall MSHR misses
system.l2.overall_mshr_misses::total           802522                       # number of overall MSHR misses
system.l2.demand_mshr_miss_latency::.switch_cpus.inst      1345000                       # number of demand (read+write) MSHR miss cycles
system.l2.demand_mshr_miss_latency::.switch_cpus.data  56287121000                       # number of demand (read+write) MSHR miss cycles
system.l2.demand_mshr_miss_latency::total  56288466000                       # number of demand (read+write) MSHR miss cycles
system.l2.overall_mshr_miss_latency::.switch_cpus.inst      1345000                       # number of overall MSHR miss cycles
system.l2.overall_mshr_miss_latency::.switch_cpus.data  56287121000                       # number of overall MSHR miss cycles
system.l2.overall_mshr_miss_latency::total  56288466000                       # number of overall MSHR miss cycles
system.l2.demand_mshr_miss_rate::.switch_cpus.inst            1                       # mshr miss rate for demand accesses
system.l2.demand_mshr_miss_rate::.switch_cpus.data     0.383538                       # mshr miss rate for demand accesses
system.l2.demand_mshr_miss_rate::total       0.383542                       # mshr miss rate for demand accesses
system.l2.overall_mshr_miss_rate::.switch_cpus.inst            1                       # mshr miss rate for overall accesses
system.l2.overall_mshr_miss_rate::.switch_cpus.data     0.383538                       # mshr miss rate for overall accesses
system.l2.overall_mshr_miss_rate::total      0.383542                       # mshr miss rate for overall accesses
system.l2.demand_avg_mshr_miss_latency::.switch_cpus.inst 79117.647059                       # average overall mshr miss latency
system.l2.demand_avg_mshr_miss_latency::.switch_cpus.data 70139.277637                       # average overall mshr miss latency
system.l2.demand_avg_mshr_miss_latency::total 70139.467828                       # average overall mshr miss latency
system.l2.overall_avg_mshr_miss_latency::.switch_cpus.inst 79117.647059                       # average overall mshr miss latency
system.l2.overall_avg_mshr_miss_latency::.switch_cpus.data 70139.277637                       # average overall mshr miss latency
system.l2.overall_avg_mshr_miss_latency::total 70139.467828                       # average overall mshr miss latency
system.l2.replacements                         889797                       # number of replacements
system.l2.WritebackDirty_hits::.writebacks       143473                       # number of WritebackDirty hits
system.l2.WritebackDirty_hits::total           143473                       # number of WritebackDirty hits
system.l2.WritebackDirty_accesses::.writebacks       143473                       # number of WritebackDirty accesses(hits+misses)
system.l2.WritebackDirty_accesses::total       143473                       # number of WritebackDirty accesses(hits+misses)
system.l2.CleanEvict_mshr_misses::.writebacks       463952                       # number of CleanEvict MSHR misses
system.l2.CleanEvict_mshr_misses::total        463952                       # number of CleanEvict MSHR misses
system.l2.CleanEvict_mshr_miss_rate::.writebacks          inf                       # mshr miss rate for CleanEvict accesses
system.l2.CleanEvict_mshr_miss_rate::total          inf                       # mshr miss rate for CleanEvict accesses
system.l2.ReadExReq_hits::.switch_cpus.data          466                       # number of ReadExReq hits
system.l2.ReadExReq_hits::total                   466                       # number of ReadExReq hits
system.l2.ReadExReq_misses::.switch_cpus.data        79281                       # number of ReadExReq misses
system.l2.ReadExReq_misses::total               79281                       # number of ReadExReq misses
system.l2.ReadExReq_miss_latency::.switch_cpus.data   6608415000                       # number of ReadExReq miss cycles
system.l2.ReadExReq_miss_latency::total    6608415000                       # number of ReadExReq miss cycles
system.l2.ReadExReq_accesses::.switch_cpus.data        79747                       # number of ReadExReq accesses(hits+misses)
system.l2.ReadExReq_accesses::total             79747                       # number of ReadExReq accesses(hits+misses)
system.l2.ReadExReq_miss_rate::.switch_cpus.data     0.994157                       # miss rate for ReadExReq accesses
system.l2.ReadExReq_miss_rate::total         0.994157                       # miss rate for ReadExReq accesses
system.l2.ReadExReq_avg_miss_latency::.switch_cpus.data 83354.334582                       # average ReadExReq miss latency
system.l2.ReadExReq_avg_miss_latency::total 83354.334582                       # average ReadExReq miss latency
system.l2.ReadExReq_mshr_misses::.switch_cpus.data        79281                       # number of ReadExReq MSHR misses
system.l2.ReadExReq_mshr_misses::total          79281                       # number of ReadExReq MSHR misses
system.l2.ReadExReq_mshr_miss_latency::.switch_cpus.data   5815605000                       # number of ReadExReq MSHR miss cycles
system.l2.ReadExReq_mshr_miss_latency::total   5815605000                       # number of ReadExReq MSHR miss cycles
system.l2.ReadExReq_mshr_miss_rate::.switch_cpus.data     0.994157                       # mshr miss rate for ReadExReq accesses
system.l2.ReadExReq_mshr_miss_rate::total     0.994157                       # mshr miss rate for ReadExReq accesses
system.l2.ReadExReq_avg_mshr_miss_latency::.switch_cpus.data 73354.334582                       # average ReadExReq mshr miss latency
system.l2.ReadExReq_avg_mshr_miss_latency::total 73354.334582                       # average ReadExReq mshr miss latency
system.l2.ReadCleanReq_misses::.cpu.inst            1                       # number of ReadCleanReq misses
system.l2.ReadCleanReq_misses::.switch_cpus.inst           17                       # number of ReadCleanReq misses
system.l2.ReadCleanReq_misses::total               18                       # number of ReadCleanReq misses
system.l2.ReadCleanReq_miss_latency::.switch_cpus.inst      1515000                       # number of ReadCleanReq miss cycles
system.l2.ReadCleanReq_miss_latency::total      1515000                       # number of ReadCleanReq miss cycles
system.l2.ReadCleanReq_accesses::.cpu.inst            1                       # number of ReadCleanReq accesses(hits+misses)
system.l2.ReadCleanReq_accesses::.switch_cpus.inst           17                       # number of ReadCleanReq accesses(hits+misses)
system.l2.ReadCleanReq_accesses::total             18                       # number of ReadCleanReq accesses(hits+misses)
system.l2.ReadCleanReq_miss_rate::.cpu.inst            1                       # miss rate for ReadCleanReq accesses
system.l2.ReadCleanReq_miss_rate::.switch_cpus.inst            1                       # miss rate for ReadCleanReq accesses
system.l2.ReadCleanReq_miss_rate::total             1                       # miss rate for ReadCleanReq accesses
system.l2.ReadCleanReq_avg_miss_latency::.switch_cpus.inst 89117.647059                       # average ReadCleanReq miss latency
system.l2.ReadCleanReq_avg_miss_latency::total 84166.666667                       # average ReadCleanReq miss latency
system.l2.ReadCleanReq_mshr_misses::.switch_cpus.inst           17                       # number of ReadCleanReq MSHR misses
system.l2.ReadCleanReq_mshr_misses::total           17                       # number of ReadCleanReq MSHR misses
system.l2.ReadCleanReq_mshr_miss_latency::.switch_cpus.inst      1345000                       # number of ReadCleanReq MSHR miss cycles
system.l2.ReadCleanReq_mshr_miss_latency::total      1345000                       # number of ReadCleanReq MSHR miss cycles
system.l2.ReadCleanReq_mshr_miss_rate::.switch_cpus.inst            1                       # mshr miss rate for ReadCleanReq accesses
system.l2.ReadCleanReq_mshr_miss_rate::total     0.944444                       # mshr miss rate for ReadCleanReq accesses
system.l2.ReadCleanReq_avg_mshr_miss_latency::.switch_cpus.inst 79117.647059                       # average ReadCleanReq mshr miss latency
system.l2.ReadCleanReq_avg_mshr_miss_latency::total 79117.647059                       # average ReadCleanReq mshr miss latency
system.l2.ReadSharedReq_hits::.switch_cpus.data      1289405                       # number of ReadSharedReq hits
system.l2.ReadSharedReq_hits::total           1289405                       # number of ReadSharedReq hits
system.l2.ReadSharedReq_misses::.cpu.data            3                       # number of ReadSharedReq misses
[...]
system.cpu.icache.tags.data_accesses         22021126                       # Number of data accesses
system.cpu.dtb.walker.pwrStateResidencyTicks::UNDEFINED 92958889897000                       # Cumulative time (in ticks) in various power states
system.cpu.interrupts.clk_domain.clock           8000                       # Clock period in ticks
system.cpu.itb_walker_cache.pwrStateResidencyTicks::UNDEFINED 92958889897000                       # Cumulative time (in ticks) in various power states
system.cpu.itb_walker_cache.blocked_cycles::no_mshrs            0                       # number of cycles access was blocked
system.cpu.itb_walker_cache.blocked_cycles::no_targets            0                       # number of cycles access was blocked
system.cpu.itb_walker_cache.blocked::no_mshrs            0                       # number of cycles access was blocked
system.cpu.itb_walker_cache.blocked::no_targets            0                       # number of cycles access was blocked
system.cpu.itb_walker_cache.avg_blocked_cycles::no_mshrs          nan                       # average number of cycles each access was blocked
system.cpu.itb_walker_cache.avg_blocked_cycles::no_targets          nan                       # average number of cycles each access was blocked
system.cpu.itb_walker_cache.replacements            0                       # number of replacements
system.cpu.itb_walker_cache.tags.pwrStateResidencyTicks::UNDEFINED 92958889897000                       # Cumulative time (in ticks) in various power states
system.cpu.itb_walker_cache.tags.tagsinuse            0                       # Cycle average of tags in use
system.cpu.itb_walker_cache.tags.total_refs            0                       # Total number of references to valid blocks.
system.cpu.itb_walker_cache.tags.sampled_refs            0                       # Sample count of references to valid blocks.
system.cpu.itb_walker_cache.tags.avg_refs          nan                       # Average number of references to valid blocks.
system.cpu.itb_walker_cache.tags.warmup_cycle            0                       # Cycle when the warmup percentage was hit.
system.cpu.itb_walker_cache.tags.tag_accesses            0                       # Number of tag accesses
system.cpu.itb_walker_cache.tags.data_accesses            0                       # Number of data accesses
system.cpu.itb.walker.pwrStateResidencyTicks::UNDEFINED 92958889897000                       # Cumulative time (in ticks) in various power states
system.cpu.dtb_walker_cache.pwrStateResidencyTicks::UNDEFINED 92958889897000                       # Cumulative time (in ticks) in various power states
system.cpu.dtb_walker_cache.blocked_cycles::no_mshrs            0                       # number of cycles access was blocked
system.cpu.dtb_walker_cache.blocked_cycles::no_targets            0                       # number of cycles access was blocked
system.cpu.dtb_walker_cache.blocked::no_mshrs            0                       # number of cycles access was blocked
system.cpu.dtb_walker_cache.blocked::no_targets            0                       # number of cycles access was blocked
system.cpu.dtb_walker_cache.avg_blocked_cycles::no_mshrs          nan                       # average number of cycles each access was blocked
system.cpu.dtb_walker_cache.avg_blocked_cycles::no_targets          nan                       # average number of cycles each access was blocked
system.cpu.dtb_walker_cache.replacements            0                       # number of replacements
system.cpu.dtb_walker_cache.tags.pwrStateResidencyTicks::UNDEFINED 92958889897000                       # Cumulative time (in ticks) in various power states
system.cpu.dtb_walker_cache.tags.tagsinuse            0                       # Cycle average of tags in use
system.cpu.dtb_walker_cache.tags.total_refs            0                       # Total number of references to valid blocks.
system.cpu.dtb_walker_cache.tags.sampled_refs            0                       # Sample count of references to valid blocks.
system.cpu.dtb_walker_cache.tags.avg_refs          nan                       # Average number of references to valid blocks.
system.cpu.dtb_walker_cache.tags.warmup_cycle            0                       # Cycle when the warmup percentage was hit.
system.cpu.dtb_walker_cache.tags.tag_accesses            0                       # Number of tag accesses
system.cpu.dtb_walker_cache.tags.data_accesses            0                       # Number of data accesses
system.cpu.dcache.pwrStateResidencyTicks::UNDEFINED 92958889897000                       # Cumulative time (in ticks) in various power states
system.cpu.dcache.demand_hits::.cpu.data            1                       # number of demand (read+write) hits
system.cpu.dcache.demand_hits::.switch_cpus.data     13404446                       # number of demand (read+write) hits
system.cpu.dcache.demand_hits::total         13404447                       # number of demand (read+write) hits
system.cpu.dcache.overall_hits::.cpu.data            1                       # number of overall hits
system.cpu.dcache.overall_hits::.switch_cpus.data     13404446                       # number of overall hits
system.cpu.dcache.overall_hits::total        13404447                       # number of overall hits
system.cpu.dcache.demand_misses::.cpu.data            3                       # number of demand (read+write) misses
system.cpu.dcache.demand_misses::.switch_cpus.data      8977049                       # number of demand (read+write) misses
system.cpu.dcache.demand_misses::total        8977052                       # number of demand (read+write) misses
system.cpu.dcache.overall_misses::.cpu.data            3                       # number of overall misses
system.cpu.dcache.overall_misses::.switch_cpus.data      8977049                       # number of overall misses
system.cpu.dcache.overall_misses::total       8977052                       # number of overall misses
system.cpu.dcache.demand_miss_latency::.switch_cpus.data 439889165549                       # number of demand (read+write) miss cycles
system.cpu.dcache.demand_miss_latency::total 439889165549                       # number of demand (read+write) miss cycles
system.cpu.dcache.overall_miss_latency::.switch_cpus.data 439889165549                       # number of overall miss cycles
system.cpu.dcache.overall_miss_latency::total 439889165549                       # number of overall miss cycles
system.cpu.dcache.demand_accesses::.cpu.data            4                       # number of demand (read+write) accesses
system.cpu.dcache.demand_accesses::.switch_cpus.data     22381495                       # number of demand (read+write) accesses
system.cpu.dcache.demand_accesses::total     22381499                       # number of demand (read+write) accesses
system.cpu.dcache.overall_accesses::.cpu.data            4                       # number of overall (read+write) accesses
system.cpu.dcache.overall_accesses::.switch_cpus.data     22381495                       # number of overall (read+write) accesses
system.cpu.dcache.overall_accesses::total     22381499                       # number of overall (read+write) accesses
system.cpu.dcache.demand_miss_rate::.cpu.data     0.750000                       # miss rate for demand accesses
system.cpu.dcache.demand_miss_rate::.switch_cpus.data     0.401092                       # miss rate for demand accesses
system.cpu.dcache.demand_miss_rate::total     0.401093                       # miss rate for demand accesses
system.cpu.dcache.overall_miss_rate::.cpu.data     0.750000                       # miss rate for overall accesses
system.cpu.dcache.overall_miss_rate::.switch_cpus.data     0.401092                       # miss rate for overall accesses
system.cpu.dcache.overall_miss_rate::total     0.401093                       # miss rate for overall accesses
system.cpu.dcache.demand_avg_miss_latency::.switch_cpus.data 49001.533304                       # average overall miss latency
system.cpu.dcache.demand_avg_miss_latency::total 49001.516929                       # average overall miss latency
system.cpu.dcache.overall_avg_miss_latency::.switch_cpus.data 49001.533304                       # average overall miss latency
system.cpu.dcache.overall_avg_miss_latency::total 49001.516929                       # average overall miss latency
system.cpu.dcache.blocked_cycles::no_mshrs     37453789                       # number of cycles access was blocked
system.cpu.dcache.blocked_cycles::no_targets            0                       # number of cycles access was blocked
system.cpu.dcache.blocked::no_mshrs           1352592                       # number of cycles access was blocked
system.cpu.dcache.blocked::no_targets               0                       # number of cycles access was blocked
system.cpu.dcache.avg_blocked_cycles::no_mshrs    27.690382                       # average number of cycles each access was blocked
system.cpu.dcache.avg_blocked_cycles::no_targets          nan                       # average number of cycles each access was blocked
system.cpu.dcache.writebacks::.writebacks       559071                       # number of writebacks
system.cpu.dcache.writebacks::total            559071                       # number of writebacks
system.cpu.dcache.demand_mshr_hits::.switch_cpus.data      1179858                       # number of demand (read+write) MSHR hits
system.cpu.dcache.demand_mshr_hits::total      1179858                       # number of demand (read+write) MSHR hits
system.cpu.dcache.overall_mshr_hits::.switch_cpus.data      1179858                       # number of overall MSHR hits
system.cpu.dcache.overall_mshr_hits::total      1179858                       # number of overall MSHR hits
system.cpu.dcache.demand_mshr_misses::.switch_cpus.data      7797191                       # number of demand (read+write) MSHR misses
system.cpu.dcache.demand_mshr_misses::total      7797191                       # number of demand (read+write) MSHR misses
system.cpu.dcache.overall_mshr_misses::.switch_cpus.data      7797191                       # number of overall MSHR misses
system.cpu.dcache.overall_mshr_misses::total      7797191                       # number of overall MSHR misses
system.cpu.dcache.demand_mshr_miss_latency::.switch_cpus.data 373890519551                       # number of demand (read+write) MSHR miss cycles
system.cpu.dcache.demand_mshr_miss_latency::total 373890519551                       # number of demand (read+write) MSHR miss cycles
system.cpu.dcache.overall_mshr_miss_latency::.switch_cpus.data 373890519551                       # number of overall MSHR miss cycles
system.cpu.dcache.overall_mshr_miss_latency::total 373890519551                       # number of overall MSHR miss cycles
system.cpu.dcache.demand_mshr_miss_rate::.switch_cpus.data     0.348377                       # mshr miss rate for demand accesses
system.cpu.dcache.demand_mshr_miss_rate::total     0.348377                       # mshr miss rate for demand accesses
system.cpu.dcache.overall_mshr_miss_rate::.switch_cpus.data     0.348377                       # mshr miss rate for overall accesses
system.cpu.dcache.overall_mshr_miss_rate::total     0.348377                       # mshr miss rate for overall accesses
system.cpu.dcache.demand_avg_mshr_miss_latency::.switch_cpus.data 47951.950844                       # average overall mshr miss latency
system.cpu.dcache.demand_avg_mshr_miss_latency::total 47951.950844                       # average overall mshr miss latency
system.cpu.dcache.overall_avg_mshr_miss_latency::.switch_cpus.data 47951.950844                       # average overall mshr miss latency
system.cpu.dcache.overall_avg_mshr_miss_latency::total 47951.950844                       # average overall mshr miss latency
system.cpu.dcache.replacements                7796170                       # number of replacements
system.cpu.dcache.ReadReq_hits::.cpu.data            1                       # number of ReadReq hits
system.cpu.dcache.ReadReq_hits::.switch_cpus.data      9091485                       # number of ReadReq hits
system.cpu.dcache.ReadReq_hits::total         9091486                       # number of ReadReq hits
system.cpu.dcache.ReadReq_misses::.cpu.data            3                       # number of ReadReq misses
system.cpu.dcache.ReadReq_misses::.switch_cpus.data      8677233                       # number of ReadReq misses
system.cpu.dcache.ReadReq_misses::total       8677236                       # number of ReadReq misses
system.cpu.dcache.ReadReq_miss_latency::.switch_cpus.data 413826928000                       # number of ReadReq miss cycles
system.cpu.dcache.ReadReq_miss_latency::total 413826928000                       # number of ReadReq miss cycles
system.cpu.dcache.ReadReq_accesses::.cpu.data            4                       # number of ReadReq accesses(hits+misses)
system.cpu.dcache.ReadReq_accesses::.switch_cpus.data     17768718                       # number of ReadReq accesses(hits+misses)
system.cpu.dcache.ReadReq_accesses::total     17768722                       # number of ReadReq accesses(hits+misses)
system.cpu.dcache.ReadReq_miss_rate::.cpu.data     0.750000                       # miss rate for ReadReq accesses
system.cpu.dcache.ReadReq_miss_rate::.switch_cpus.data     0.488343                       # miss rate for ReadReq accesses
system.cpu.dcache.ReadReq_miss_rate::total     0.488343                       # miss rate for ReadReq accesses
system.cpu.dcache.ReadReq_avg_miss_latency::.switch_cpus.data 47691.116281                       # average ReadReq miss latency
system.cpu.dcache.ReadReq_avg_miss_latency::total 47691.099793                       # average ReadReq miss latency
system.cpu.dcache.ReadReq_mshr_hits::.switch_cpus.data      1179840                       # number of ReadReq MSHR hits
system.cpu.dcache.ReadReq_mshr_hits::total      1179840                       # number of ReadReq MSHR hits
system.cpu.dcache.ReadReq_mshr_misses::.switch_cpus.data      7497393                       # number of ReadReq MSHR misses
system.cpu.dcache.ReadReq_mshr_misses::total      7497393                       # number of ReadReq MSHR misses
system.cpu.dcache.ReadReq_mshr_miss_latency::.switch_cpus.data 348128739500                       # number of ReadReq MSHR miss cycles
system.cpu.dcache.ReadReq_mshr_miss_latency::total 348128739500                       # number of ReadReq MSHR miss cycles
system.cpu.dcache.ReadReq_mshr_miss_rate::.switch_cpus.data     0.421943                       # mshr miss rate for ReadReq accesses
system.cpu.dcache.ReadReq_mshr_miss_rate::total     0.421943                       # mshr miss rate for ReadReq accesses
system.cpu.dcache.ReadReq_avg_mshr_miss_latency::.switch_cpus.data 46433.305484                       # average ReadReq mshr miss latency
system.cpu.dcache.ReadReq_avg_mshr_miss_latency::total 46433.305484                       # average ReadReq mshr miss latency
system.cpu.dcache.WriteReq_hits::.switch_cpus.data      4312961                       # number of WriteReq hits
system.cpu.dcache.WriteReq_hits::total        4312961                       # number of WriteReq hits
system.cpu.dcache.WriteReq_misses::.switch_cpus.data       299816                       # number of WriteReq misses
system.cpu.dcache.WriteReq_misses::total       299816                       # number of WriteReq misses
system.cpu.dcache.WriteReq_miss_latency::.switch_cpus.data  26062237549                       # number of WriteReq miss cycles
system.cpu.dcache.WriteReq_miss_latency::total  26062237549                       # number of WriteReq miss cycles
system.cpu.dcache.WriteReq_accesses::.switch_cpus.data      4612777                       # number of WriteReq accesses(hits+misses)
system.cpu.dcache.WriteReq_accesses::total      4612777                       # number of WriteReq accesses(hits+misses)
system.cpu.dcache.WriteReq_miss_rate::.switch_cpus.data     0.064997                       # miss rate for WriteReq accesses
system.cpu.dcache.WriteReq_miss_rate::total     0.064997                       # miss rate for WriteReq accesses
system.cpu.dcache.WriteReq_avg_miss_latency::.switch_cpus.data 86927.440660                       # average WriteReq miss latency
system.cpu.dcache.WriteReq_avg_miss_latency::total 86927.440660                       # average WriteReq miss latency
system.cpu.dcache.WriteReq_mshr_hits::.switch_cpus.data           18                       # number of WriteReq MSHR hits
system.cpu.dcache.WriteReq_mshr_hits::total           18                       # number of WriteReq MSHR hits
system.cpu.dcache.WriteReq_mshr_misses::.switch_cpus.data       299798                       # number of WriteReq MSHR misses
system.cpu.dcache.WriteReq_mshr_misses::total       299798                       # number of WriteReq MSHR misses
system.cpu.dcache.WriteReq_mshr_miss_latency::.switch_cpus.data  25761780051                       # number of WriteReq MSHR miss cycles
system.cpu.dcache.WriteReq_mshr_miss_latency::total  25761780051                       # number of WriteReq MSHR miss cycles
system.cpu.dcache.WriteReq_mshr_miss_rate::.switch_cpus.data     0.064993                       # mshr miss rate for WriteReq accesses
system.cpu.dcache.WriteReq_mshr_miss_rate::total     0.064993                       # mshr miss rate for WriteReq accesses
system.cpu.dcache.WriteReq_avg_mshr_miss_latency::.switch_cpus.data 85930.460013                       # average WriteReq mshr miss latency
system.cpu.dcache.WriteReq_avg_mshr_miss_latency::total 85930.460013                       # average WriteReq mshr miss latency
system.cpu.dcache.tags.pwrStateResidencyTicks::UNDEFINED 92958889897000                       # Cumulative time (in ticks) in various power states
system.cpu.dcache.tags.tagsinuse             1.958260                       # Cycle average of tags in use
system.cpu.dcache.tags.total_refs            21201641                       # Total number of references to valid blocks.
system.cpu.dcache.tags.sampled_refs           7797194                       # Sample count of references to valid blocks.
system.cpu.dcache.tags.avg_refs              2.719137                       # Average number of references to valid blocks.
system.cpu.dcache.tags.warmup_cycle      92781095431500                       # Cycle when the warmup percentage was hit.
system.cpu.dcache.tags.occ_blocks::.cpu.data     0.000002                       # Average occupied blocks per requestor
system.cpu.dcache.tags.occ_blocks::.switch_cpus.data     1.958258                       # Average occupied blocks per requestor
system.cpu.dcache.tags.occ_percent::.cpu.data     0.000000                       # Average percentage of cache occupancy
system.cpu.dcache.tags.occ_percent::.switch_cpus.data     0.001912                       # Average percentage of cache occupancy
system.cpu.dcache.tags.occ_percent::total     0.001912                       # Average percentage of cache occupancy
system.cpu.dcache.tags.occ_task_id_blocks::1024         1024                       # Occupied blocks per task id
system.cpu.dcache.tags.age_task_id_blocks_1024::0          410                       # Occupied blocks per task id
system.cpu.dcache.tags.age_task_id_blocks_1024::1          611                       # Occupied blocks per task id
system.cpu.dcache.tags.age_task_id_blocks_1024::2            3                       # Occupied blocks per task id
system.cpu.dcache.tags.occ_task_id_percent::1024            1                       # Percentage of cache occupancy per task id
system.cpu.dcache.tags.tag_accesses          52560192                       # Number of tag accesses
system.cpu.dcache.tags.data_accesses         52560192                       # Number of data accesses

---------- End Simulation Statistics   ----------
