
---------- Begin Simulation Statistics ----------
final_tick                               81939832390500                       # Number of ticks from beginning of simulation (restored from checkpoints and never reset)
host_inst_rate                                  49868                       # Simulator instruction rate (inst/s)
host_mem_usage                                 791504                       # Number of bytes of host memory used
host_op_rate                                    79986                       # Simulator op (including micro ops) rate (op/s)
host_seconds                                   200.53                       # Real time elapsed on the host
host_tick_rate                               13784262                       # Simulator tick rate (ticks/s)
sim_freq                                 1000000000000                       # Frequency of simulated ticks
sim_insts                                    10000011                       # Number of instructions simulated
sim_ops                                      16039482                       # Number of ops (including micro ops) simulated
sim_seconds                                  0.002764                       # Number of seconds simulated
sim_ticks                                  2764133000                       # Number of ticks simulated
system.cpu.committedInsts                          11                       # Number of instructions committed
system.cpu.committedOps                            16                       # Number of ops (including micro ops) committed
system.cpu.dtb.rdAccesses                           5                       # TLB accesses on read requests
system.cpu.dtb.rdMisses                             0                       # TLB misses on read requests
system.cpu.dtb.wrAccesses                           2                       # TLB accesses on write requests
system.cpu.dtb.wrMisses                             0                       # TLB misses on write requests
system.cpu.idle_fraction                            0                       # Percentage of idle cycles
system.cpu.itb.rdAccesses                           0                       # TLB accesses on read requests
system.cpu.itb.rdMisses                             0                       # TLB misses on read requests
system.cpu.itb.wrAccesses                          16                       # TLB accesses on write requests
system.cpu.itb.wrMisses                             0                       # TLB misses on write requests
system.cpu.not_idle_fraction                        1                       # Percentage of non-idle cycles
system.cpu.numCycles                               21                       # number of cpu cycles simulated
system.cpu.numWorkItemsCompleted                    0                       # number of work items this cpu completed
system.cpu.numWorkItemsStarted                      0                       # number of work items this cpu started
system.cpu.num_busy_cycles                         21                       # Number of busy cycles
system.cpu.num_cc_register_reads                   20                       # number of times the CC registers were read
system.cpu.num_cc_register_writes                   8                       # number of times the CC registers were written
system.cpu.num_conditional_control_insts            0                       # number of instructions that are conditional controls
system.cpu.num_fp_alu_accesses                      0                       # Number of float alu accesses
system.cpu.num_fp_insts                             0                       # number of float instructions
system.cpu.num_fp_register_reads                    0                       # number of times the floating registers were read
system.cpu.num_fp_register_writes                   0                       # number of times the floating registers were written
system.cpu.num_func_calls                           0                       # number of times a function call or return occured
system.cpu.num_idle_cycles                          0                       # Number of idle cycles
system.cpu.num_int_alu_accesses                    16                       # Number of integer alu accesses
system.cpu.num_int_insts                           16                       # number of integer instructions
system.cpu.num_int_register_reads                  43                       # number of times the integer registers were read
system.cpu.num_int_register_writes                 14                       # number of times the integer registers were written
system.cpu.num_load_insts                           5                       # Number of load instructions
system.cpu.num_mem_refs                             7                       # number of memory refs
system.cpu.num_store_insts                          2                       # Number of store instructions
system.cpu.num_vec_alu_accesses                     0                       # Number of vector alu accesses
system.cpu.num_vec_insts                            0                       # number of vector instructions
system.cpu.num_vec_register_reads                   0                       # number of times the vector registers were read
system.cpu.num_vec_register_writes                  0                       # number of times the vector registers were written
system.cpu.op_class::No_OpClass                     0      0.00%      0.00% # Class of executed instruction
system.cpu.op_class::IntAlu                         9     56.25%     56.25% # Class of executed instruction
system.cpu.op_class::IntMult                        0      0.00%     56.25% # Class of executed instruction
system.cpu.op_class::IntDiv                         0      0.00%     56.25% # Class of executed instruction
system.cpu.op_class::FloatAdd                       0      0.00%     56.25% # Class of executed instruction
system.cpu.op_class::FloatCmp                       0      0.00%     56.25% # Class of executed instruction
system.cpu.op_class::FloatCvt                       0      0.00%     56.25% # Class of executed instruction
system.cpu.op_class::FloatMult                      0      0.00%     56.25% # Class of executed instruction
system.cpu.op_class::FloatMultAcc                   0      0.00%     56.25% # Class of executed instruction
system.cpu.op_class::FloatDiv                       0      0.00%     56.25% # Class of executed instruction
system.cpu.op_class::FloatMisc                      0      0.00%     56.25% # Class of executed instruction
system.cpu.op_class::FloatSqrt                      0      0.00%     56.25% # Class of executed instruction
system.cpu.op_class::SimdAdd                        0      0.00%     56.25% # Class of executed instruction
system.cpu.op_class::SimdAddAcc                     0      0.00%     56.25% # Class of executed instruction
system.cpu.op_class::SimdAlu                        0      0.00%     56.25% # Class of executed instruction
system.cpu.op_class::SimdCmp                        0      0.00%     56.25% # Class of executed instruction
system.cpu.op_class::SimdCvt                        0      0.00%     56.25% # Class of executed instruction
system.cpu.op_class::SimdMisc                       0      0.00%     56.25% # Class of executed instruction
system.cpu.op_class::SimdMult                       0      0.00%     56.25% # Class of executed instruction
system.cpu.op_class::SimdMultAcc                    0      0.00%     56.25% # Class of executed instruction
system.cpu.op_class::SimdShift                      0      0.00%     56.25% # Class of executed instruction
system.cpu.op_class::SimdShiftAcc                   0      0.00%     56.25% # Class of executed instruction
system.cpu.op_class::SimdDiv                        0      0.00%     56.25% # Class of executed instruction
system.cpu.op_class::SimdSqrt                       0      0.00%     56.25% # Class of executed instruction
system.cpu.op_class::SimdFloatAdd                   0      0.00%     56.25% # Class of executed instruction
system.cpu.op_class::SimdFloatAlu                   0      0.00%     56.25% # Class of executed instruction
system.cpu.op_class::SimdFloatCmp                   0      0.00%     56.25% # Class of executed instruction
system.cpu.op_class::SimdFloatCvt                   0      0.00%     56.25% # Class of executed instruction
system.cpu.op_class::SimdFloatDiv                   0      0.00%     56.25% # Class of executed instruction
system.cpu.op_class::SimdFloatMisc                  0      0.00%     56.25% # Class of executed instruction
system.cpu.op_class::SimdFloatMult                  0      0.00%     56.25% # Class of executed instruction
system.cpu.op_class::SimdFloatMultAcc               0      0.00%     56.25% # Class of executed instruction
system.cpu.op_class::SimdFloatSqrt                  0      0.00%     56.25% # Class of executed instruction
system.cpu.op_class::SimdReduceAdd                  0      0.00%     56.25% # Class of executed instruction
system.cpu.op_class::SimdReduceAlu                  0      0.00%     56.25% # Class of executed instruction
system.cpu.op_class::SimdReduceCmp                  0      0.00%     56.25% # Class of executed instruction
system.cpu.op_class::SimdFloatReduceAdd             0      0.00%     56.25% # Class of executed instruction
system.cpu.op_class::SimdFloatReduceCmp             0      0.00%     56.25% # Class of executed instruction
system.cpu.op_class::SimdAes                        0      0.00%     56.25% # Class of executed instruction
system.cpu.op_class::SimdAesMix                     0      0.00%     56.25% # Class of executed instruction
system.cpu.op_class::SimdSha1Hash                   0      0.00%     56.25% # Class of executed instruction
system.cpu.op_class::SimdSha1Hash2                  0      0.00%     56.25% # Class of executed instruction
system.cpu.op_class::SimdSha256Hash                 0      0.00%     56.25% # Class of executed instruction
system.cpu.op_class::SimdSha256Hash2                0      0.00%     56.25% # Class of executed instruction
system.cpu.op_class::SimdShaSigma2                  0      0.00%     56.25% # Class of executed instruction
system.cpu.op_class::SimdShaSigma3                  0      0.00%     56.25% # Class of executed instruction
system.cpu.op_class::SimdPredAlu                    0      0.00%     56.25% # Class of executed instruction
system.cpu.op_class::MemRead                        5     31.25%     87.50% # Class of executed instruction
system.cpu.op_class::MemWrite                       2     12.50%    100.00% # Class of executed instruction
system.cpu.op_class::FloatMemRead                   0      0.00%    100.00% # Class of executed instruction
system.cpu.op_class::FloatMemWrite                  0      0.00%    100.00% # Class of executed instruction
system.cpu.op_class::IprAccess                      0      0.00%    100.00% # Class of executed instruction
system.cpu.op_class::InstPrefetch                   0      0.00%    100.00% # Class of executed instruction
system.cpu.op_class::total                         16                       # Class of executed instruction
system.cpu.workload.numSyscalls                     0                       # Number of system calls
system.membus.snoop_filter.hit_multi_requests            0                       # Number of requests hitting in the snoop filter with multiple (>1) holders of the requested data.
system.membus.snoop_filter.hit_multi_snoops            0                       # Number of snoops hitting in the snoop filter with multiple (>1) holders of the requested data.
system.membus.snoop_filter.hit_single_requests         3165                       # Number of requests hitting in the snoop filter with a single holder of the requested data.
system.membus.snoop_filter.hit_single_snoops            0                       # Number of snoops hitting in the snoop filter with a single holder of the requested data.
system.membus.snoop_filter.tot_requests          8543                       # Total number of requests made to the snoop filter.
system.membus.snoop_filter.tot_snoops               0                       # Total number of snoops made to the snoop filter.
system.switch_cpus.branchPred.BTBCorrect            0                       # Number of correct BTB predictions (this stat may not work properly.
system.switch_cpus.branchPred.BTBHitPct      0.000000                       # BTB Hit Percentage
system.switch_cpus.branchPred.BTBHits               0                       # Number of BTB hits
system.switch_cpus.branchPred.BTBLookups       638854                       # Number of BTB lookups
system.switch_cpus.branchPred.RASInCorrect            1                       # Number of incorrect RAS predictions.
system.switch_cpus.branchPred.condIncorrect        20504                       # Number of conditional branches incorrect
system.switch_cpus.branchPred.condPredicted       861896                       # Number of conditional branches predicted
system.switch_cpus.branchPred.indirectHits       499723                       # Number of indirect target hits.
system.switch_cpus.branchPred.indirectLookups       638854                       # Number of indirect predictor lookups.
system.switch_cpus.branchPred.indirectMisses       139131                       # Number of indirect misses.
system.switch_cpus.branchPred.lookups          945253                       # Number of BP lookups
system.switch_cpus.branchPred.usedRAS           40863                       # Number of times the RAS was used to get a target.
system.switch_cpus.branchPredindirectMispredicted         2707                       # Number of mispredicted indirect branches.
system.switch_cpus.cc_regfile_reads          14093014                       # number of cc regfile reads
system.switch_cpus.cc_regfile_writes          7120758                       # number of cc regfile writes
system.switch_cpus.commit.amos                      0                       # Number of atomic instructions committed
system.switch_cpus.commit.branchMispredicts        20531                       # The number of times a branch was mispredicted
system.switch_cpus.commit.branches             716889                       # Number of branches committed
system.switch_cpus.commit.bw_lim_events       1267110                       # number cycles where commit BW limit reached
system.switch_cpus.commit.commitSquashedInsts      1248854                       # The number of squashed insts skipped by commit
system.switch_cpus.commit.committedInsts     10000000                       # Number of instructions committed
system.switch_cpus.commit.committedOps       16039466                       # Number of ops (including micro ops) committed
system.switch_cpus.commit.committed_per_cycle::samples      5349224                       # Number of insts commited each cycle
system.switch_cpus.commit.committed_per_cycle::mean     2.998466                       # Number of insts commited each cycle
system.switch_cpus.commit.committed_per_cycle::stdev     3.121506                       # Number of insts commited each cycle
system.switch_cpus.commit.committed_per_cycle::underflows            0      0.00%      0.00% # Number of insts commited each cycle
system.switch_cpus.commit.committed_per_cycle::0      1083302     20.25%     20.25% # Number of insts commited each cycle
system.switch_cpus.commit.committed_per_cycle::1      1875806     35.07%     55.32% # Number of insts commited each cycle
system.switch_cpus.commit.committed_per_cycle::2       421122      7.87%     63.19% # Number of insts commited each cycle
system.switch_cpus.commit.committed_per_cycle::3       200546      3.75%     66.94% # Number of insts commited each cycle
system.switch_cpus.commit.committed_per_cycle::4       149811      2.80%     69.74% # Number of insts commited each cycle
system.switch_cpus.commit.committed_per_cycle::5       167479      3.13%     72.87% # Number of insts commited each cycle
system.switch_cpus.commit.committed_per_cycle::6       142077      2.66%     75.53% # Number of insts commited each cycle
system.switch_cpus.commit.committed_per_cycle::7        41971      0.78%     76.31% # Number of insts commited each cycle
system.switch_cpus.commit.committed_per_cycle::8      1267110     23.69%    100.00% # Number of insts commited each cycle
system.switch_cpus.commit.committed_per_cycle::overflows            0      0.00%    100.00% # Number of insts commited each cycle
system.switch_cpus.commit.committed_per_cycle::min_value            0                       # Number of insts commited each cycle
system.switch_cpus.commit.committed_per_cycle::max_value            8                       # Number of insts commited each cycle
system.switch_cpus.commit.committed_per_cycle::total      5349224                       # Number of insts commited each cycle
system.switch_cpus.commit.fp_insts            1422468                       # Number of committed floating point instructions.
system.switch_cpus.commit.function_calls        32268                       # Number of function calls committed.
system.switch_cpus.commit.int_insts          14820827                       # Number of committed integer instructions.
system.switch_cpus.commit.loads               3605608                       # Number of loads committed
system.switch_cpus.commit.membars                   0                       # Number of memory barriers committed
system.switch_cpus.commit.op_class_0::No_OpClass        95096      0.59%      0.59% # Class of committed instruction
system.switch_cpus.commit.op_class_0::IntAlu      9834473     61.31%     61.91% # Class of committed instruction
system.switch_cpus.commit.op_class_0::IntMult        85136      0.53%     62.44% # Class of committed instruction
system.switch_cpus.commit.op_class_0::IntDiv            0      0.00%     62.44% # Class of committed instruction
system.switch_cpus.commit.op_class_0::FloatAdd        32304      0.20%     62.64% # Class of committed instruction
system.switch_cpus.commit.op_class_0::FloatCmp            0      0.00%     62.64% # Class of committed instruction
system.switch_cpus.commit.op_class_0::FloatCvt            0      0.00%     62.64% # Class of committed instruction
system.switch_cpus.commit.op_class_0::FloatMult            0      0.00%     62.64% # Class of committed instruction
system.switch_cpus.commit.op_class_0::FloatMultAcc            0      0.00%     62.64% # Class of committed instruction
system.switch_cpus.commit.op_class_0::FloatDiv            0      0.00%     62.64% # Class of committed instruction
system.switch_cpus.commit.op_class_0::FloatMisc            0      0.00%     62.64% # Class of committed instruction
system.switch_cpus.commit.op_class_0::FloatSqrt            0      0.00%     62.64% # Class of committed instruction
system.switch_cpus.commit.op_class_0::SimdAdd        21092      0.13%     62.77% # Class of committed instruction
system.switch_cpus.commit.op_class_0::SimdAddAcc            0      0.00%     62.77% # Class of committed instruction
system.switch_cpus.commit.op_class_0::SimdAlu       328288      2.05%     64.82% # Class of committed instruction
system.switch_cpus.commit.op_class_0::SimdCmp            0      0.00%     64.82% # Class of committed instruction
system.switch_cpus.commit.op_class_0::SimdCvt       126484      0.79%     65.61% # Class of committed instruction
system.switch_cpus.commit.op_class_0::SimdMisc       158973      0.99%     66.60% # Class of committed instruction
system.switch_cpus.commit.op_class_0::SimdMult            0      0.00%     66.60% # Class of committed instruction
system.switch_cpus.commit.op_class_0::SimdMultAcc            0      0.00%     66.60% # Class of committed instruction
system.switch_cpus.commit.op_class_0::SimdShift        63276      0.39%     66.99% # Class of committed instruction
system.switch_cpus.commit.op_class_0::SimdShiftAcc            0      0.00%     66.99% # Class of committed instruction
system.switch_cpus.commit.op_class_0::SimdDiv            0      0.00%     66.99% # Class of committed instruction
system.switch_cpus.commit.op_class_0::SimdSqrt            0      0.00%     66.99% # Class of committed instruction
system.switch_cpus.commit.op_class_0::SimdFloatAdd       107593      0.67%     67.66% # Class of committed instruction
system.switch_cpus.commit.op_class_0::SimdFloatAlu            0      0.00%     67.66% # Class of committed instruction
system.switch_cpus.commit.op_class_0::SimdFloatCmp           32      0.00%     67.66% # Class of committed instruction
system.switch_cpus.commit.op_class_0::SimdFloatCvt       150578      0.94%     68.60% # Class of committed instruction
system.switch_cpus.commit.op_class_0::SimdFloatDiv        21316      0.13%     68.73% # Class of committed instruction
system.switch_cpus.commit.op_class_0::SimdFloatMisc            0      0.00%     68.73% # Class of committed instruction
system.switch_cpus.commit.op_class_0::SimdFloatMult        11022      0.07%     68.80% # Class of committed instruction
system.switch_cpus.commit.op_class_0::SimdFloatMultAcc            0      0.00%     68.80% # Class of committed instruction
system.switch_cpus.commit.op_class_0::SimdFloatSqrt            0      0.00%     68.80% # Class of committed instruction
system.switch_cpus.commit.op_class_0::SimdReduceAdd            0      0.00%     68.80% # Class of committed instruction
system.switch_cpus.commit.op_class_0::SimdReduceAlu            0      0.00%     68.80% # Class of committed instruction
system.switch_cpus.commit.op_class_0::SimdReduceCmp            0      0.00%     68.80% # Class of committed instruction
system.switch_cpus.commit.op_class_0::SimdFloatReduceAdd            0      0.00%     68.80% # Class of committed instruction
system.switch_cpus.commit.op_class_0::SimdFloatReduceCmp            0      0.00%     68.80% # Class of committed instruction
system.switch_cpus.commit.op_class_0::SimdAes            0      0.00%     68.80% # Class of committed instruction
system.switch_cpus.commit.op_class_0::SimdAesMix            0      0.00%     68.80% # Class of committed instruction
system.switch_cpus.commit.op_class_0::SimdSha1Hash            0      0.00%     68.80% # Class of committed instruction
system.switch_cpus.commit.op_class_0::SimdSha1Hash2            0      0.00%     68.80% # Class of committed instruction
system.switch_cpus.commit.op_class_0::SimdSha256Hash            0      0.00%     68.80% # Class of committed instruction
system.switch_cpus.commit.op_class_0::SimdSha256Hash2            0      0.00%     68.80% # Class of committed instruction
system.switch_cpus.commit.op_class_0::SimdShaSigma2            0      0.00%     68.80% # Class of committed instruction
system.switch_cpus.commit.op_class_0::SimdShaSigma3            0      0.00%     68.80% # Class of committed instruction
system.switch_cpus.commit.op_class_0::SimdPredAlu            0      0.00%     68.80% # Class of committed instruction
system.switch_cpus.commit.op_class_0::MemRead      3381319     21.08%     89.88% # Class of committed instruction
system.switch_cpus.commit.op_class_0::MemWrite      1397848      8.72%     98.60% # Class of committed instruction
system.switch_cpus.commit.op_class_0::FloatMemRead       224289      1.40%    100.00% # Class of committed instruction
system.switch_cpus.commit.op_class_0::FloatMemWrite          347      0.00%    100.00% # Class of committed instruction
system.switch_cpus.commit.op_class_0::IprAccess            0      0.00%    100.00% # Class of committed instruction
system.switch_cpus.commit.op_class_0::InstPrefetch            0      0.00%    100.00% # Class of committed instruction
system.switch_cpus.commit.op_class_0::total     16039466                       # Class of committed instruction
system.switch_cpus.commit.refs                5003803                       # Number of memory references committed
system.switch_cpus.commit.swp_count                 0                       # Number of s/w prefetches committed
system.switch_cpus.commit.vec_insts                 0                       # Number of committed Vector instructions.
system.switch_cpus.committedInsts            10000000                       # Number of Instructions Simulated
system.switch_cpus.committedOps              16039466                       # Number of Ops (including micro ops) Simulated
system.switch_cpus.cpi                       0.552825                       # CPI: Cycles Per Instruction
system.switch_cpus.cpi_total                 0.552825                       # CPI: Total CPI of All Threads
system.switch_cpus.decode.BlockedCycles       2611473                       # Number of cycles decode is blocked
system.switch_cpus.decode.DecodedInsts       17637762                       # Number of instructions handled by decode
system.switch_cpus.decode.IdleCycles           557660                       # Number of cycles decode is idle
system.switch_cpus.decode.RunCycles           1563592                       # Number of cycles decode is running
system.switch_cpus.decode.SquashCycles          20760                       # Number of cycles decode is squashing
system.switch_cpus.decode.UnblockCycles        763180                       # Number of cycles decode is unblocking
system.switch_cpus.dtb.rdAccesses             3694285                       # TLB accesses on read requests
system.switch_cpus.dtb.rdMisses                    70                       # TLB misses on read requests
system.switch_cpus.dtb.wrAccesses             1411763                       # TLB accesses on write requests
system.switch_cpus.dtb.wrMisses                   104                       # TLB misses on write requests
system.switch_cpus.fetch.Branches              945253                       # Number of branches that fetch encountered
system.switch_cpus.fetch.CacheLines            856405                       # Number of cache lines fetched
system.switch_cpus.fetch.Cycles               4624305                       # Number of cycles fetch has run and was not squashing or blocked
system.switch_cpus.fetch.IcacheSquashes          4006                       # Number of outstanding Icache misses that were squashed
system.switch_cpus.fetch.Insts               10962356                       # Number of instructions fetch has processed
system.switch_cpus.fetch.MiscStallCycles           27                       # Number of cycles fetch has spent waiting on interrupts, or bad addresses, or out of MSHRs
system.switch_cpus.fetch.PendingTrapStallCycles          164                       # Number of stall cycles due to pending traps
system.switch_cpus.fetch.SquashCycles           41520                       # Number of cycles fetch has spent squashing
system.switch_cpus.fetch.branchRate          0.170986                       # Number of branch fetches per cycle
system.switch_cpus.fetch.icacheStallCycles       871417                       # Number of cycles fetch is stalled on an Icache miss
system.switch_cpus.fetch.predictedBranches       540586                       # Number of branches that fetch has predicted taken
system.switch_cpus.fetch.rate                1.982972                       # Number of inst fetches per cycle
system.switch_cpus.fetch.rateDist::samples      5516673                       # Number of instructions fetched each cycle (Total)
system.switch_cpus.fetch.rateDist::mean      3.240939                       # Number of instructions fetched each cycle (Total)
system.switch_cpus.fetch.rateDist::stdev     3.543098                       # Number of instructions fetched each cycle (Total)
system.switch_cpus.fetch.rateDist::underflows            0      0.00%      0.00% # Number of instructions fetched each cycle (Total)
system.switch_cpus.fetch.rateDist::0          2706693     49.06%     49.06% # Number of instructions fetched each cycle (Total)
system.switch_cpus.fetch.rateDist::1           134798      2.44%     51.51% # Number of instructions fetched each cycle (Total)
system.switch_cpus.fetch.rateDist::2           104825      1.90%     53.41% # Number of instructions fetched each cycle (Total)
system.switch_cpus.fetch.rateDist::3           151634      2.75%     56.16% # Number of instructions fetched each cycle (Total)
system.switch_cpus.fetch.rateDist::4           179951      3.26%     59.42% # Number of instructions fetched each cycle (Total)
system.switch_cpus.fetch.rateDist::5           338479      6.14%     65.55% # Number of instructions fetched each cycle (Total)
system.switch_cpus.fetch.rateDist::6           170412      3.09%     68.64% # Number of instructions fetched each cycle (Total)
system.switch_cpus.fetch.rateDist::7           193867      3.51%     72.16% # Number of instructions fetched each cycle (Total)
system.switch_cpus.fetch.rateDist::8          1536014     27.84%    100.00% # Number of instructions fetched each cycle (Total)
system.switch_cpus.fetch.rateDist::overflows            0      0.00%    100.00% # Number of instructions fetched each cycle (Total)
system.switch_cpus.fetch.rateDist::min_value            0                       # Number of instructions fetched each cycle (Total)
system.switch_cpus.fetch.rateDist::max_value            8                       # Number of instructions fetched each cycle (Total)
system.switch_cpus.fetch.rateDist::total      5516673                       # Number of instructions fetched each cycle (Total)
system.switch_cpus.fp_regfile_reads           2746292                       # number of floating regfile reads
system.switch_cpus.fp_regfile_writes          1368819                       # number of floating regfile writes
system.switch_cpus.idleCycles                   11572                       # Total number of cycles that the CPU has spent unscheduled due to idling
system.switch_cpus.iew.branchMispredicts        34019                       # Number of branch mispredicts detected at execute
system.switch_cpus.iew.exec_branches           781770                       # Number of branches executed
system.switch_cpus.iew.exec_nop                     0                       # number of nop insts executed
system.switch_cpus.iew.exec_rate             3.035387                       # Inst execution rate
system.switch_cpus.iew.exec_refs              5100559                       # number of memory reference insts executed
system.switch_cpus.iew.exec_stores            1411763                       # Number of stores executed
system.switch_cpus.iew.exec_swp                     0                       # number of swp insts executed
system.switch_cpus.iew.iewBlockCycles          153652                       # Number of cycles IEW is blocking
system.switch_cpus.iew.iewDispLoadInsts       3721605                       # Number of dispatched load instructions
system.switch_cpus.iew.iewDispNonSpecInsts            3                       # Number of dispatched non-speculative instructions
system.switch_cpus.iew.iewDispSquashedInsts          683                       # Number of squashed instructions skipped by dispatch
system.switch_cpus.iew.iewDispStoreInsts      1429202                       # Number of dispatched store instructions
system.switch_cpus.iew.iewDispatchedInsts     17288390                       # Number of instructions dispatched to IQ
system.switch_cpus.iew.iewExecLoadInsts       3688796                       # Number of load instructions executed
system.switch_cpus.iew.iewExecSquashedInsts        34653                       # Number of squashed instructions skipped in execute
system.switch_cpus.iew.iewExecutedInsts      16780363                       # Number of executed instructions
system.switch_cpus.iew.iewIQFullEvents            147                       # Number of times the IQ has become full, causing a stall
system.switch_cpus.iew.iewIdleCycles                0                       # Number of cycles IEW is idle
system.switch_cpus.iew.iewLSQFullEvents         47678                       # Number of times the LSQ has become full, causing a stall
system.switch_cpus.iew.iewSquashCycles          20760                       # Number of cycles IEW is squashing
system.switch_cpus.iew.iewUnblockCycles         47928                       # Number of cycles IEW is unblocking
system.switch_cpus.iew.lsq.thread0.blockedLoads            0                       # Number of blocked loads due to partial load-store forwarding
system.switch_cpus.iew.lsq.thread0.cacheBlocked          160                       # Number of times an access to memory failed due to the cache being blocked
system.switch_cpus.iew.lsq.thread0.forwLoads       381571                       # Number of loads that had data forwarded from stores
system.switch_cpus.iew.lsq.thread0.ignoredResponses           48                       # Number of memory responses ignored because the instruction is squashed
system.switch_cpus.iew.lsq.thread0.invAddrLoads            0                       # Number of loads ignored due to an invalid address
system.switch_cpus.iew.lsq.thread0.invAddrSwpfs            0                       # Number of software prefetches ignored due to an invalid address
system.switch_cpus.iew.lsq.thread0.memOrderViolation          266                       # Number of memory ordering violations
system.switch_cpus.iew.lsq.thread0.rescheduledLoads            0                       # Number of loads that were rescheduled
system.switch_cpus.iew.lsq.thread0.squashedLoads       115976                       # Number of loads squashed
system.switch_cpus.iew.lsq.thread0.squashedStores        31002                       # Number of stores squashed
system.switch_cpus.iew.memOrderViolationEvents          266                       # Number of memory order violations
system.switch_cpus.iew.predictedNotTakenIncorrect        28530                       # Number of branches that were predicted not taken incorrectly
system.switch_cpus.iew.predictedTakenIncorrect         5489                       # Number of branches that were predicted taken incorrectly
system.switch_cpus.iew.wb_consumers          26954263                       # num instructions consuming a value
system.switch_cpus.iew.wb_count              16763025                       # cumulative count of insts written-back
system.switch_cpus.iew.wb_fanout             0.498478                       # average fanout of values written-back
system.switch_cpus.iew.wb_producers          13436103                       # num instructions producing a value
system.switch_cpus.iew.wb_rate               3.032251                       # insts written-back per cycle
system.switch_cpus.iew.wb_sent               16770090                       # cumulative count of insts sent to commit
system.switch_cpus.int_regfile_reads         29044173                       # number of integer regfile reads
system.switch_cpus.int_regfile_writes        13099251                       # number of integer regfile writes
system.switch_cpus.ipc                       1.808892                       # IPC: Instructions Per Cycle
system.switch_cpus.ipc_total                 1.808892                       # IPC: Total IPC of All Threads
system.switch_cpus.iq.FU_type_0::No_OpClass       100181      0.60%      0.60% # Type of FU issued
system.switch_cpus.iq.FU_type_0::IntAlu      10412184     61.92%     62.52% # Type of FU issued
system.switch_cpus.iq.FU_type_0::IntMult        86886      0.52%     63.03% # Type of FU issued
system.switch_cpus.iq.FU_type_0::IntDiv             0      0.00%     63.03% # Type of FU issued
system.switch_cpus.iq.FU_type_0::FloatAdd        35030      0.21%     63.24% # Type of FU issued
system.switch_cpus.iq.FU_type_0::FloatCmp            0      0.00%     63.24% # Type of FU issued
system.switch_cpus.iq.FU_type_0::FloatCvt            0      0.00%     63.24% # Type of FU issued
system.switch_cpus.iq.FU_type_0::FloatMult            0      0.00%     63.24% # Type of FU issued
system.switch_cpus.iq.FU_type_0::FloatMultAcc            0      0.00%     63.24% # Type of FU issued
system.switch_cpus.iq.FU_type_0::FloatDiv            0      0.00%     63.24% # Type of FU issued
system.switch_cpus.iq.FU_type_0::FloatMisc            0      0.00%     63.24% # Type of FU issued
system.switch_cpus.iq.FU_type_0::FloatSqrt            0      0.00%     63.24% # Type of FU issued
system.switch_cpus.iq.FU_type_0::SimdAdd        21092      0.13%     63.37% # Type of FU issued
system.switch_cpus.iq.FU_type_0::SimdAddAcc            0      0.00%     63.37% # Type of FU issued
system.switch_cpus.iq.FU_type_0::SimdAlu       342870      2.04%     65.41% # Type of FU issued
system.switch_cpus.iq.FU_type_0::SimdCmp            0      0.00%     65.41% # Type of FU issued
system.switch_cpus.iq.FU_type_0::SimdCvt       129271      0.77%     66.18% # Type of FU issued
system.switch_cpus.iq.FU_type_0::SimdMisc       161097      0.96%     67.13% # Type of FU issued
system.switch_cpus.iq.FU_type_0::SimdMult            0      0.00%     67.13% # Type of FU issued
system.switch_cpus.iq.FU_type_0::SimdMultAcc            0      0.00%     67.13% # Type of FU issued
system.switch_cpus.iq.FU_type_0::SimdShift        63360      0.38%     67.51% # Type of FU issued
system.switch_cpus.iq.FU_type_0::SimdShiftAcc            0      0.00%     67.51% # Type of FU issued
system.switch_cpus.iq.FU_type_0::SimdDiv            0      0.00%     67.51% # Type of FU issued
system.switch_cpus.iq.FU_type_0::SimdSqrt            0      0.00%     67.51% # Type of FU issued
system.switch_cpus.iq.FU_type_0::SimdFloatAdd       138989      0.83%     68.34% # Type of FU issued
system.switch_cpus.iq.FU_type_0::SimdFloatAlu            0      0.00%     68.34% # Type of FU issued
system.switch_cpus.iq.FU_type_0::SimdFloatCmp           46      0.00%     68.34% # Type of FU issued
system.switch_cpus.iq.FU_type_0::SimdFloatCvt       176561      1.05%     69.39% # Type of FU issued
system.switch_cpus.iq.FU_type_0::SimdFloatDiv        23335      0.14%     69.53% # Type of FU issued
system.switch_cpus.iq.FU_type_0::SimdFloatMisc            0      0.00%     69.53% # Type of FU issued
system.switch_cpus.iq.FU_type_0::SimdFloatMult        13153      0.08%     69.60% # Type of FU issued
system.switch_cpus.iq.FU_type_0::SimdFloatMultAcc            0      0.00%     69.60% # Type of FU issued
system.switch_cpus.iq.FU_type_0::SimdFloatSqrt            0      0.00%     69.60% # Type of FU issued
system.switch_cpus.iq.FU_type_0::SimdReduceAdd            0      0.00%     69.60% # Type of FU issued
system.switch_cpus.iq.FU_type_0::SimdReduceAlu            0      0.00%     69.60% # Type of FU issued
system.switch_cpus.iq.FU_type_0::SimdReduceCmp            0      0.00%     69.60% # Type of FU issued
system.switch_cpus.iq.FU_type_0::SimdFloatReduceAdd            0      0.00%     69.60% # Type of FU issued
system.switch_cpus.iq.FU_type_0::SimdFloatReduceCmp            0      0.00%     69.60% # Type of FU issued
system.switch_cpus.iq.FU_type_0::SimdAes            0      0.00%     69.60% # Type of FU issued
system.switch_cpus.iq.FU_type_0::SimdAesMix            0      0.00%     69.60% # Type of FU issued
system.switch_cpus.iq.FU_type_0::SimdSha1Hash            0      0.00%     69.60% # Type of FU issued
system.switch_cpus.iq.FU_type_0::SimdSha1Hash2            0      0.00%     69.60% # Type of FU issued
system.switch_cpus.iq.FU_type_0::SimdSha256Hash            0      0.00%     69.60% # Type of FU issued
system.switch_cpus.iq.FU_type_0::SimdSha256Hash2            0      0.00%     69.60% # Type of FU issued
system.switch_cpus.iq.FU_type_0::SimdShaSigma2            0      0.00%     69.60% # Type of FU issued
system.switch_cpus.iq.FU_type_0::SimdShaSigma3            0      0.00%     69.60% # Type of FU issued
system.switch_cpus.iq.FU_type_0::SimdPredAlu            0      0.00%     69.60% # Type of FU issued
system.switch_cpus.iq.FU_type_0::MemRead      3417255     20.32%     89.93% # Type of FU issued
system.switch_cpus.iq.FU_type_0::MemWrite      1413396      8.41%     98.33% # Type of FU issued
system.switch_cpus.iq.FU_type_0::FloatMemRead       279824      1.66%    100.00% # Type of FU issued
system.switch_cpus.iq.FU_type_0::FloatMemWrite          493      0.00%    100.00% # Type of FU issued
system.switch_cpus.iq.FU_type_0::IprAccess            0      0.00%    100.00% # Type of FU issued
system.switch_cpus.iq.FU_type_0::InstPrefetch            0      0.00%    100.00% # Type of FU issued
system.switch_cpus.iq.FU_type_0::total       16815023                       # Type of FU issued
system.switch_cpus.iq.fp_alu_accesses         1586691                       # Number of floating point alu accesses
system.switch_cpus.iq.fp_inst_queue_reads      3151234                       # Number of floating instruction queue reads
system.switch_cpus.iq.fp_inst_queue_wakeup_accesses      1546969                       # Number of floating instruction queue wakeup accesses
system.switch_cpus.iq.fp_inst_queue_writes      1899442                       # Number of floating instruction queue writes
system.switch_cpus.iq.fu_busy_cnt              198479                       # FU busy when requested
system.switch_cpus.iq.fu_busy_rate           0.011804                       # FU busy rate (busy events/executed inst)
system.switch_cpus.iq.fu_full::No_OpClass            0      0.00%      0.00% # attempts to use FU when none available
system.switch_cpus.iq.fu_full::IntAlu          118368     59.64%     59.64% # attempts to use FU when none available
system.switch_cpus.iq.fu_full::IntMult              0      0.00%     59.64% # attempts to use FU when none available
system.switch_cpus.iq.fu_full::IntDiv               0      0.00%     59.64% # attempts to use FU when none available
system.switch_cpus.iq.fu_full::FloatAdd             0      0.00%     59.64% # attempts to use FU when none available
system.switch_cpus.iq.fu_full::FloatCmp             0      0.00%     59.64% # attempts to use FU when none available
system.switch_cpus.iq.fu_full::FloatCvt             0      0.00%     59.64% # attempts to use FU when none available
system.switch_cpus.iq.fu_full::FloatMult            0      0.00%     59.64% # attempts to use FU when none available
system.switch_cpus.iq.fu_full::FloatMultAcc            0      0.00%     59.64% # attempts to use FU when none available
system.switch_cpus.iq.fu_full::FloatDiv             0      0.00%     59.64% # attempts to use FU when none available
system.switch_cpus.iq.fu_full::FloatMisc            0      0.00%     59.64% # attempts to use FU when none available
system.switch_cpus.iq.fu_full::FloatSqrt            0      0.00%     59.64% # attempts to use FU when none available
system.switch_cpus.iq.fu_full::SimdAdd              0      0.00%     59.64% # attempts to use FU when none available
system.switch_cpus.iq.fu_full::SimdAddAcc            0      0.00%     59.64% # attempts to use FU when none available
system.switch_cpus.iq.fu_full::SimdAlu            128      0.06%     59.70% # attempts to use FU when none available
system.switch_cpus.iq.fu_full::SimdCmp              0      0.00%     59.70% # attempts to use FU when none available
system.switch_cpus.iq.fu_full::SimdCvt           3369      1.70%     61.40% # attempts to use FU when none available
system.switch_cpus.iq.fu_full::SimdMisc            34      0.02%     61.42% # attempts to use FU when none available
system.switch_cpus.iq.fu_full::SimdMult             0      0.00%     61.42% # attempts to use FU when none available
system.switch_cpus.iq.fu_full::SimdMultAcc            0      0.00%     61.42% # attempts to use FU when none available
system.switch_cpus.iq.fu_full::SimdShift            1      0.00%     61.42% # attempts to use FU when none available
system.switch_cpus.iq.fu_full::SimdShiftAcc            0      0.00%     61.42% # attempts to use FU when none available
system.switch_cpus.iq.fu_full::SimdDiv              0      0.00%     61.42% # attempts to use FU when none available
system.switch_cpus.iq.fu_full::SimdSqrt             0      0.00%     61.42% # attempts to use FU when none available
system.switch_cpus.iq.fu_full::SimdFloatAdd         2793      1.41%     62.82% # attempts to use FU when none available
system.switch_cpus.iq.fu_full::SimdFloatAlu            0      0.00%     62.82% # attempts to use FU when none available
system.switch_cpus.iq.fu_full::SimdFloatCmp            0      0.00%     62.82% # attempts to use FU when none available
system.switch_cpus.iq.fu_full::SimdFloatCvt         9903      4.99%     67.81% # attempts to use FU when none available
system.switch_cpus.iq.fu_full::SimdFloatDiv            0      0.00%     67.81% # attempts to use FU when none available
system.switch_cpus.iq.fu_full::SimdFloatMisc            0      0.00%     67.81% # attempts to use FU when none available
system.switch_cpus.iq.fu_full::SimdFloatMult            0      0.00%     67.81% # attempts to use FU when none available
system.switch_cpus.iq.fu_full::SimdFloatMultAcc            0      0.00%     67.81% # attempts to use FU when none available
system.switch_cpus.iq.fu_full::SimdFloatSqrt            0      0.00%     67.81% # attempts to use FU when none available
system.switch_cpus.iq.fu_full::SimdReduceAdd            0      0.00%     67.81% # attempts to use FU when none available
system.switch_cpus.iq.fu_full::SimdReduceAlu            0      0.00%     67.81% # attempts to use FU when none available
system.switch_cpus.iq.fu_full::SimdReduceCmp            0      0.00%     67.81% # attempts to use FU when none available
system.switch_cpus.iq.fu_full::SimdFloatReduceAdd            0      0.00%     67.81% # attempts to use FU when none available
system.switch_cpus.iq.fu_full::SimdFloatReduceCmp            0      0.00%     67.81% # attempts to use FU when none available
system.switch_cpus.iq.fu_full::SimdAes              0      0.00%     67.81% # attempts to use FU when none available
system.switch_cpus.iq.fu_full::SimdAesMix            0      0.00%     67.81% # attempts to use FU when none available
system.switch_cpus.iq.fu_full::SimdSha1Hash            0      0.00%     67.81% # attempts to use FU when none available
system.switch_cpus.iq.fu_full::SimdSha1Hash2            0      0.00%     67.81% # attempts to use FU when none available
system.switch_cpus.iq.fu_full::SimdSha256Hash            0      0.00%     67.81% # attempts to use FU when none available
system.switch_cpus.iq.fu_full::SimdSha256Hash2            0      0.00%     67.81% # attempts to use FU when none available
system.switch_cpus.iq.fu_full::SimdShaSigma2            0      0.00%     67.81% # attempts to use FU when none available
system.switch_cpus.iq.fu_full::SimdShaSigma3            0      0.00%     67.81% # attempts to use FU when none available
system.switch_cpus.iq.fu_full::SimdPredAlu            0      0.00%     67.81% # attempts to use FU when none available
system.switch_cpus.iq.fu_full::MemRead          56863     28.65%     96.46% # attempts to use FU when none available
system.switch_cpus.iq.fu_full::MemWrite           546      0.28%     96.74% # attempts to use FU when none available
system.switch_cpus.iq.fu_full::FloatMemRead         6474      3.26%    100.00% # attempts to use FU when none available
system.switch_cpus.iq.fu_full::FloatMemWrite            0      0.00%    100.00% # attempts to use FU when none available
system.switch_cpus.iq.fu_full::IprAccess            0      0.00%    100.00% # attempts to use FU when none available
system.switch_cpus.iq.fu_full::InstPrefetch            0      0.00%    100.00% # attempts to use FU when none available
system.switch_cpus.iq.int_alu_accesses       15326630                       # Number of integer alu accesses
system.switch_cpus.iq.int_inst_queue_reads     36269301                       # Number of integer instruction queue reads
system.switch_cpus.iq.int_inst_queue_wakeup_accesses     15216056                       # Number of integer instruction queue wakeup accesses
system.switch_cpus.iq.int_inst_queue_writes     16638030                       # Number of integer instruction queue writes
system.switch_cpus.iq.iqInstsAdded           17288378                       # Number of instructions added to the IQ (excludes non-spec)
system.switch_cpus.iq.iqInstsIssued          16815023                       # Number of instructions issued
system.switch_cpus.iq.iqNonSpecInstsAdded           12                       # Number of non-speculative instructions added to the IQ
system.switch_cpus.iq.iqSquashedInstsExamined      1248819                       # Number of squashed instructions iterated over during squash; mainly for profiling
system.switch_cpus.iq.iqSquashedInstsIssued        75344                       # Number of squashed instructions issued
system.switch_cpus.iq.iqSquashedNonSpecRemoved           12                       # Number of squashed non-spec instructions that were removed
system.switch_cpus.iq.iqSquashedOperandsExamined      1765129                       # Number of squashed operands that are examined and possibly removed from graph
system.switch_cpus.iq.issued_per_cycle::samples      5516673                       # Number of insts issued each cycle
system.switch_cpus.iq.issued_per_cycle::mean     3.048037                       # Number of insts issued each cycle
system.switch_cpus.iq.issued_per_cycle::stdev     2.285585                       # Number of insts issued each cycle
system.switch_cpus.iq.issued_per_cycle::underflows            0      0.00%      0.00% # Number of insts issued each cycle
system.switch_cpus.iq.issued_per_cycle::0       961332     17.43%     17.43% # Number of insts issued each cycle
system.switch_cpus.iq.issued_per_cycle::1       621381     11.26%     28.69% # Number of insts issued each cycle
system.switch_cpus.iq.issued_per_cycle::2       900604     16.33%     45.01% # Number of insts issued each cycle
system.switch_cpus.iq.issued_per_cycle::3       831714     15.08%     60.09% # Number of insts issued each cycle
system.switch_cpus.iq.issued_per_cycle::4       739423     13.40%     73.49% # Number of insts issued each cycle
system.switch_cpus.iq.issued_per_cycle::5       604934     10.97%     84.46% # Number of insts issued each cycle
system.switch_cpus.iq.issued_per_cycle::6       346009      6.27%     90.73% # Number of insts issued each cycle
system.switch_cpus.iq.issued_per_cycle::7       251332      4.56%     95.29% # Number of insts issued each cycle
system.switch_cpus.iq.issued_per_cycle::8       259944      4.71%    100.00% # Number of insts issued each cycle
system.switch_cpus.iq.issued_per_cycle::overflows            0      0.00%    100.00% # Number of insts issued each cycle
system.switch_cpus.iq.issued_per_cycle::min_value            0                       # Number of insts issued each cycle
system.switch_cpus.iq.issued_per_cycle::max_value            8                       # Number of insts issued each cycle
system.switch_cpus.iq.issued_per_cycle::total      5516673                       # Number of insts issued each cycle
system.switch_cpus.iq.rate                   3.041657                       # Inst issue rate
system.switch_cpus.iq.vec_alu_accesses              0                       # Number of vector alu accesses
system.switch_cpus.iq.vec_inst_queue_reads            0                       # Number of vector instruction queue reads
system.switch_cpus.iq.vec_inst_queue_wakeup_accesses            0                       # Number of vector instruction queue wakeup accesses
system.switch_cpus.iq.vec_inst_queue_writes            0                       # Number of vector instruction queue writes
system.switch_cpus.itb.rdAccesses                   0                       # TLB accesses on read requests
system.switch_cpus.itb.rdMisses                     0                       # TLB misses on read requests
system.switch_cpus.itb.wrAccesses              856433                       # TLB accesses on write requests
system.switch_cpus.itb.wrMisses                    43                       # TLB misses on write requests
system.switch_cpus.memDep0.conflictingLoads       383171                       # Number of conflicting loads.
system.switch_cpus.memDep0.conflictingStores       285182                       # Number of conflicting stores.
system.switch_cpus.memDep0.insertedLoads      3721605                       # Number of loads inserted to the mem dependence unit.
system.switch_cpus.memDep0.insertedStores      1429202                       # Number of stores inserted to the mem dependence unit.
system.switch_cpus.misc_regfile_reads         6735804                       # number of misc regfile reads
system.switch_cpus.misc_regfile_writes              1                       # number of misc regfile writes
system.switch_cpus.numCycles                  5528245                       # number of cpu cycles simulated
system.switch_cpus.numWorkItemsCompleted            0                       # number of work items this cpu completed
system.switch_cpus.numWorkItemsStarted              0                       # number of work items this cpu started
system.switch_cpus.rename.BlockCycles          267866                       # Number of cycles rename is blocking
system.switch_cpus.rename.CommittedMaps      20732556                       # Number of HB maps that are committed
system.switch_cpus.rename.IQFullEvents         148406                       # Number of times rename has blocked due to IQ full
system.switch_cpus.rename.IdleCycles           870092                       # Number of cycles rename is idle
system.switch_cpus.rename.LQFullEvents         577257                       # Number of times rename has blocked due to LQ full
system.switch_cpus.rename.ROBFullEvents          3129                       # Number of times rename has blocked due to ROB full
system.switch_cpus.rename.RenameLookups      54966693                       # Number of register rename lookups that rename has made
system.switch_cpus.rename.RenamedInsts       17521121                       # Number of instructions processed by rename
system.switch_cpus.rename.RenamedOperands     22491535                       # Number of destination operands rename has renamed
system.switch_cpus.rename.RunCycles           2003687                       # Number of cycles rename is running
system.switch_cpus.rename.SQFullEvents        1384716                       # Number of times rename has blocked due to SQ full
system.switch_cpus.rename.SquashCycles          20760                       # Number of cycles rename is squashing
system.switch_cpus.rename.UnblockCycles       2354260                       # Number of cycles rename is unblocking
system.switch_cpus.rename.UndoneMaps          1758820                       # Number of HB maps that are undone due to squashing
system.switch_cpus.rename.fp_rename_lookups      3013511                       # Number of floating rename lookups
system.switch_cpus.rename.int_rename_lookups     30062771                       # Number of integer rename lookups
system.switch_cpus.rename.serializeStallCycles            0                       # count of cycles rename stalled for serializing inst
system.switch_cpus.rename.serializingInsts            0                       # count of serializing insts renamed
system.switch_cpus.rename.skidInsts           4104784                       # count of insts added to the skid buffer
system.switch_cpus.rename.tempSerializingInsts            0                       # count of temporary serializing insts renamed
system.switch_cpus.rob.rob_reads             21370434                       # The number of ROB reads
system.switch_cpus.rob.rob_writes            34744791                       # The number of ROB writes
system.switch_cpus.timesIdled                     178                       # Number of times that the entire CPU went into an idle state and unscheduled itself
system.tol2bus.snoop_filter.hit_multi_requests            0                       # Number of requests hitting in the snoop filter with multiple (>1) holders of the requested data.
system.tol2bus.snoop_filter.hit_multi_snoops            0                       # Number of snoops hitting in the snoop filter with multiple (>1) holders of the requested data.
system.tol2bus.snoop_filter.hit_single_requests        24695                       # Number of requests hitting in the snoop filter with a single holder of the requested data.
system.tol2bus.snoop_filter.hit_single_snoops         2114                       # Number of snoops hitting in the snoop filter with a single holder of the requested data.
system.tol2bus.snoop_filter.tot_requests        50540                       # Total number of requests made to the snoop filter.
system.tol2bus.snoop_filter.tot_snoops           2114                       # Total number of snoops made to the snoop filter.
system.membus.pwrStateResidencyTicks::UNDEFINED 81939832390500                       # Cumulative time (in ticks) in various power states
system.membus.trans_dist::ReadResp               1677                       # Transaction distribution
system.membus.trans_dist::WritebackDirty         2066                       # Transaction distribution
system.membus.trans_dist::CleanEvict             1099                       # Transaction distribution
system.membus.trans_dist::ReadExReq              3701                       # Transaction distribution
system.membus.trans_dist::ReadExResp             3701                       # Transaction distribution
system.membus.trans_dist::ReadSharedReq          1677                       # Transaction distribution
system.membus.pkt_count_system.l2.mem_side::system.mem_ctrls.port        13921                       # Packet count per connected master and slave (bytes)
system.membus.pkt_count_system.l2.mem_side::total        13921                       # Packet count per connected master and slave (bytes)
system.membus.pkt_count::total                  13921                       # Packet count per connected master and slave (bytes)
system.membus.pkt_size_system.l2.mem_side::system.mem_ctrls.port       476416                       # Cumulative packet size per connected master and slave (bytes)
system.membus.pkt_size_system.l2.mem_side::total       476416                       # Cumulative packet size per connected master and slave (bytes)
system.membus.pkt_size::total                  476416                       # Cumulative packet size per connected master and slave (bytes)
system.membus.snoops                                0                       # Total snoops (count)
system.membus.snoopTraffic                          0                       # Total snoop traffic (bytes)
system.membus.snoop_fanout::samples              5378                       # Request fanout histogram
system.membus.snoop_fanout::mean                    0                       # Request fanout histogram
system.membus.snoop_fanout::stdev                   0                       # Request fanout histogram
system.membus.snoop_fanout::underflows              0      0.00%      0.00% # Request fanout histogram
system.membus.snoop_fanout::0                    5378    100.00%    100.00% # Request fanout histogram
system.membus.snoop_fanout::1                       0      0.00%    100.00% # Request fanout histogram
system.membus.snoop_fanout::overflows               0      0.00%    100.00% # Request fanout histogram
system.membus.snoop_fanout::min_value               0                       # Request fanout histogram
system.membus.snoop_fanout::max_value               0                       # Request fanout histogram
system.membus.snoop_fanout::total                5378                       # Request fanout histogram
system.membus.reqLayer2.occupancy            18192500                       # Layer occupancy (ticks)
system.membus.reqLayer2.utilization               0.7                       # Layer utilization (%)
system.membus.respLayer1.occupancy           28543250                       # Layer occupancy (ticks)
system.membus.respLayer1.utilization              1.0                       # Layer utilization (%)
system.switch_cpus.pwrStateResidencyTicks::OFF   2764133000                       # Cumulative time (in ticks) in various power states
system.switch_cpus.dtb.walker.pwrStateResidencyTicks::UNDEFINED 81939832390500                       # Cumulative time (in ticks) in various power states
system.switch_cpus.itb.walker.pwrStateResidencyTicks::UNDEFINED 81939832390500                       # Cumulative time (in ticks) in various power states
system.tol2bus.pwrStateResidencyTicks::UNDEFINED 81939832390500                       # Cumulative time (in ticks) in various power states
system.tol2bus.trans_dist::ReadResp              6523                       # Transaction distribution
system.tol2bus.trans_dist::WritebackDirty        21036                       # Transaction distribution
system.tol2bus.trans_dist::WritebackClean          267                       # Transaction distribution
system.tol2bus.trans_dist::CleanEvict            8277                       # Transaction distribution
system.tol2bus.trans_dist::ReadExReq            19322                       # Transaction distribution
system.tol2bus.trans_dist::ReadExResp           19321                       # Transaction distribution
system.tol2bus.trans_dist::ReadCleanReq           392                       # Transaction distribution
system.tol2bus.trans_dist::ReadSharedReq         6131                       # Transaction distribution
system.tol2bus.pkt_count_system.cpu.icache.mem_side::system.l2.cpu_side         1051                       # Packet count per connected master and slave (bytes)
system.tol2bus.pkt_count_system.cpu.dcache.mem_side::system.l2.cpu_side        75333                       # Packet count per connected master and slave (bytes)
system.tol2bus.pkt_count::total                 76384                       # Packet count per connected master and slave (bytes)
system.tol2bus.pkt_size_system.cpu.icache.mem_side::system.l2.cpu_side        42176                       # Cumulative packet size per connected master and slave (bytes)
system.tol2bus.pkt_size_system.cpu.dcache.mem_side::system.l2.cpu_side      2843008                       # Cumulative packet size per connected master and slave (bytes)
system.tol2bus.pkt_size::total                2885184                       # Cumulative packet size per connected master and slave (bytes)
system.tol2bus.snoops                            4885                       # Total snoops (count)
system.tol2bus.snoopTraffic                    132224                       # Total snoop traffic (bytes)
system.tol2bus.snoop_fanout::samples            30730                       # Request fanout histogram
system.tol2bus.snoop_fanout::mean            0.068793                       # Request fanout histogram
system.tol2bus.snoop_fanout::stdev           0.253105                       # Request fanout histogram
system.tol2bus.snoop_fanout::underflows             0      0.00%      0.00% # Request fanout histogram
system.tol2bus.snoop_fanout::0                  28616     93.12%     93.12% # Request fanout histogram
system.tol2bus.snoop_fanout::1                   2114      6.88%    100.00% # Request fanout histogram
system.tol2bus.snoop_fanout::2                      0      0.00%    100.00% # Request fanout histogram
system.tol2bus.snoop_fanout::3                      0      0.00%    100.00% # Request fanout histogram
system.tol2bus.snoop_fanout::4                      0      0.00%    100.00% # Request fanout histogram
system.tol2bus.snoop_fanout::overflows              0      0.00%    100.00% # Request fanout histogram
system.tol2bus.snoop_fanout::min_value              0                       # Request fanout histogram
system.tol2bus.snoop_fanout::max_value              1                       # Request fanout histogram
system.tol2bus.snoop_fanout::total              30730                       # Request fanout histogram
system.tol2bus.reqLayer0.occupancy           44503500                       # Layer occupancy (ticks)
system.tol2bus.reqLayer0.utilization              1.6                       # Layer utilization (%)
system.tol2bus.respLayer1.occupancy          38169499                       # Layer occupancy (ticks)
system.tol2bus.respLayer1.utilization             1.4                       # Layer utilization (%)
system.tol2bus.respLayer0.occupancy            587498                       # Layer occupancy (ticks)
system.tol2bus.respLayer0.utilization             0.0                       # Layer utilization (%)
system.voltage_domain.voltage                       1                       # Voltage in Volts
system.clk_domain.clock                          1000                       # Clock period in ticks
system.l2.pwrStateResidencyTicks::UNDEFINED 81939832390500                       # Cumulative time (in ticks) in various power states
system.l2.demand_hits::.switch_cpus.inst          234                       # number of demand (read+write) hits
system.l2.demand_hits::.switch_cpus.data        20232                       # number of demand (read+write) hits
system.l2.demand_hits::total                    20466                       # number of demand (read+write) hits
system.l2.overall_hits::.switch_cpus.inst          234                       # number of overall hits
system.l2.overall_hits::.switch_cpus.data        20232                       # number of overall hits
system.l2.overall_hits::total                   20466                       # number of overall hits
system.l2.demand_misses::.cpu.inst                  1                       # number of demand (read+write) misses
system.l2.demand_misses::.cpu.data                  6                       # number of demand (read+write) misses
system.l2.demand_misses::.switch_cpus.inst          157                       # number of demand (read+write) misses
system.l2.demand_misses::.switch_cpus.data         5215                       # number of demand (read+write) misses
system.l2.demand_misses::total                   5379                       # number of demand (read+write) misses
system.l2.overall_misses::.cpu.inst                 1                       # number of overall misses
system.l2.overall_misses::.cpu.data                 6                       # number of overall misses
system.l2.overall_misses::.switch_cpus.inst          157                       # number of overall misses
system.l2.overall_misses::.switch_cpus.data         5215                       # number of overall misses
system.l2.overall_misses::total                  5379                       # number of overall misses
system.l2.demand_miss_latency::.switch_cpus.inst     13361500                       # number of demand (read+write) miss cycles
system.l2.demand_miss_latency::.switch_cpus.data    408232500                       # number of demand (read+write) miss cycles
system.l2.demand_miss_latency::total        421594000                       # number of demand (read+write) miss cycles
system.l2.overall_miss_latency::.switch_cpus.inst     13361500                       # number of overall miss cycles
system.l2.overall_miss_latency::.switch_cpus.data    408232500                       # number of overall miss cycles
system.l2.overall_miss_latency::total       421594000                       # number of overall miss cycles
system.l2.demand_accesses::.cpu.inst                1                       # number of demand (read+write) accesses
system.l2.demand_accesses::.cpu.data                6                       # number of demand (read+write) accesses
system.l2.demand_accesses::.switch_cpus.inst          391                       # number of demand (read+write) accesses
system.l2.demand_accesses::.switch_cpus.data        25447                       # number of demand (read+write) accesses
system.l2.demand_accesses::total                25845                       # number of demand (read+write) accesses
system.l2.overall_accesses::.cpu.inst               1                       # number of overall (read+write) accesses
system.l2.overall_accesses::.cpu.data               6                       # number of overall (read+write) accesses
system.l2.overall_accesses::.switch_cpus.inst          391                       # number of overall (read+write) accesses
system.l2.overall_accesses::.switch_cpus.data        25447                       # number of overall (read+write) accesses
system.l2.overall_accesses::total               25845                       # number of overall (read+write) accesses
system.l2.demand_miss_rate::.cpu.inst               1                       # miss rate for demand accesses
system.l2.demand_miss_rate::.cpu.data               1                       # miss rate for demand accesses
system.l2.demand_miss_rate::.switch_cpus.inst     0.401535                       # miss rate for demand accesses
system.l2.demand_miss_rate::.switch_cpus.data     0.204936                       # miss rate for demand accesses
system.l2.demand_miss_rate::total            0.208125                       # miss rate for demand accesses
system.l2.overall_miss_rate::.cpu.inst              1                       # miss rate for overall accesses
system.l2.overall_miss_rate::.cpu.data              1                       # miss rate for overall accesses
system.l2.overall_miss_rate::.switch_cpus.inst     0.401535                       # miss rate for overall accesses
system.l2.overall_miss_rate::.switch_cpus.data     0.204936                       # miss rate for overall accesses
system.l2.overall_miss_rate::total           0.208125                       # miss rate for overall accesses
system.l2.demand_avg_miss_latency::.switch_cpus.inst 85105.095541                       # average overall miss latency
system.l2.demand_avg_miss_latency::.switch_cpus.data 78280.441035                       # average overall miss latency
system.l2.demand_avg_miss_latency::total 78377.765384                       # average overall miss latency
system.l2.overall_avg_miss_latency::.switch_cpus.inst 85105.095541                       # average overall miss latency
system.l2.overall_avg_miss_latency::.switch_cpus.data 78280.441035                       # average overall miss latency
system.l2.overall_avg_miss_latency::total 78377.765384                       # average overall miss latency
system.l2.blocked_cycles::no_mshrs                  0                       # number of cycles access was blocked
system.l2.blocked_cycles::no_targets                0                       # number of cycles access was blocked
system.l2.blocked::no_mshrs                         0                       # number of cycles access was blocked
system.l2.blocked::no_targets                       0                       # number of cycles access was blocked
system.l2.avg_blocked_cycles::no_mshrs            nan                       # average number of cycles each access was blocked
system.l2.avg_blocked_cycles::no_targets          nan                       # average number of cycles each access was blocked
system.l2.writebacks::.writebacks                2066                       # number of writebacks
system.l2.writebacks::total                      2066                       # number of writebacks
system.l2.demand_mshr_misses::.switch_cpus.inst          157                       # number of demand (read+write) MSHR misses
system.l2.demand_mshr_misses::.switch_cpus.data         5215                       # number of demand (read+write) MSHR misses
system.l2.demand_mshr_misses::total              5372                       # number of demand (read+write) MSHR misses
system.l2.overall_mshr_misses::.switch_cpus.inst          157                       # number of overall MSHR misses
system.l2.overall_mshr_misses::.switch_cpus.data         5215                       # number of overall MSHR misses
system.l2.overall_mshr_misses::total             5372                       # number of overall MSHR misses
system.l2.demand_mshr_miss_latency::.switch_cpus.inst     11791500                       # number of demand (read+write) MSHR miss cycles
system.l2.demand_mshr_miss_latency::.switch_cpus.data    356092500                       # number of demand (read+write) MSHR miss cycles
system.l2.demand_mshr_miss_latency::total    367884000                       # number of demand (read+write) MSHR miss cycles
system.l2.overall_mshr_miss_latency::.switch_cpus.inst     11791500                       # number of overall MSHR miss cycles
system.l2.overall_mshr_miss_latency::.switch_cpus.data    356092500                       # number of overall MSHR miss cycles
system.l2.overall_mshr_miss_latency::total    367884000                       # number of overall MSHR miss cycles
system.l2.demand_mshr_miss_rate::.switch_cpus.inst     0.401535                       # mshr miss rate for demand accesses
system.l2.demand_mshr_miss_rate::.switch_cpus.data     0.204936                       # mshr miss rate for demand accesses
system.l2.demand_mshr_miss_rate::total       0.207855                       # mshr miss rate for demand accesses
system.l2.overall_mshr_miss_rate::.switch_cpus.inst     0.401535                       # mshr miss rate for overall accesses
system.l2.overall_mshr_miss_rate::.switch_cpus.data     0.204936                       # mshr miss rate for overall accesses
system.l2.overall_mshr_miss_rate::total      0.207855                       # mshr miss rate for overall accesses
system.l2.demand_avg_mshr_miss_latency::.switch_cpus.inst 75105.095541                       # average overall mshr miss latency
system.l2.demand_avg_mshr_miss_latency::.switch_cpus.data 68282.358581                       # average overall mshr miss latency
system.l2.demand_avg_mshr_miss_latency::total 68481.757260                       # average overall mshr miss latency
system.l2.overall_avg_mshr_miss_latency::.switch_cpus.inst 75105.095541                       # average overall mshr miss latency
system.l2.overall_avg_mshr_miss_latency::.switch_cpus.data 68282.358581                       # average overall mshr miss latency
system.l2.overall_avg_mshr_miss_latency::total 68481.757260                       # average overall mshr miss latency
system.l2.replacements                           4885                       # number of replacements
system.l2.WritebackDirty_hits::.writebacks        18970                       # number of WritebackDirty hits
system.l2.WritebackDirty_hits::total            18970                       # number of WritebackDirty hits
system.l2.WritebackDirty_accesses::.writebacks        18970                       # number of WritebackDirty accesses(hits+misses)
system.l2.WritebackDirty_accesses::total        18970                       # number of WritebackDirty accesses(hits+misses)
system.l2.WritebackClean_hits::.writebacks          267                       # number of WritebackClean hits
system.l2.WritebackClean_hits::total              267                       # number of WritebackClean hits
system.l2.WritebackClean_accesses::.writebacks          267                       # number of WritebackClean accesses(hits+misses)
system.l2.WritebackClean_accesses::total          267                       # number of WritebackClean accesses(hits+misses)
system.l2.CleanEvict_mshr_misses::.writebacks          394                       # number of CleanEvict MSHR misses
system.l2.CleanEvict_mshr_misses::total           394                       # number of CleanEvict MSHR misses
system.l2.CleanEvict_mshr_miss_rate::.writebacks          inf                       # mshr miss rate for CleanEvict accesses
system.l2.CleanEvict_mshr_miss_rate::total          inf                       # mshr miss rate for CleanEvict accesses
system.l2.ReadExReq_hits::.switch_cpus.data        15620                       # number of ReadExReq hits
system.l2.ReadExReq_hits::total                 15620                       # number of ReadExReq hits
system.l2.ReadExReq_misses::.cpu.data               1                       # number of ReadExReq misses
system.l2.ReadExReq_misses::.switch_cpus.data         3701                       # number of ReadExReq misses
system.l2.ReadExReq_misses::total                3702                       # number of ReadExReq misses
system.l2.ReadExReq_miss_latency::.switch_cpus.data    279393500                       # number of ReadExReq miss cycles
system.l2.ReadExReq_miss_latency::total     279393500                       # number of ReadExReq miss cycles
system.l2.ReadExReq_accesses::.cpu.data             1                       # number of ReadExReq accesses(hits+misses)
system.l2.ReadExReq_accesses::.switch_cpus.data        19321                       # number of ReadExReq accesses(hits+misses)
system.l2.ReadExReq_accesses::total             19322                       # number of ReadExReq accesses(hits+misses)
system.l2.ReadExReq_miss_rate::.cpu.data            1                       # miss rate for ReadExReq accesses
system.l2.ReadExReq_miss_rate::.switch_cpus.data     0.191553                       # miss rate for ReadExReq accesses
system.l2.ReadExReq_miss_rate::total         0.191595                       # miss rate for ReadExReq accesses
system.l2.ReadExReq_avg_miss_latency::.switch_cpus.data 75491.353688                       # average ReadExReq miss latency
system.l2.ReadExReq_avg_miss_latency::total 75470.961642                       # average ReadExReq miss latency
system.l2.ReadExReq_mshr_misses::.switch_cpus.data         3701                       # number of ReadExReq MSHR misses
system.l2.ReadExReq_mshr_misses::total           3701                       # number of ReadExReq MSHR misses
system.l2.ReadExReq_mshr_miss_latency::.switch_cpus.data    242393500                       # number of ReadExReq MSHR miss cycles
system.l2.ReadExReq_mshr_miss_latency::total    242393500                       # number of ReadExReq MSHR miss cycles
system.l2.ReadExReq_mshr_miss_rate::.switch_cpus.data     0.191553                       # mshr miss rate for ReadExReq accesses
system.l2.ReadExReq_mshr_miss_rate::total     0.191543                       # mshr miss rate for ReadExReq accesses
system.l2.ReadExReq_avg_mshr_miss_latency::.switch_cpus.data 65494.055661                       # average ReadExReq mshr miss latency
system.l2.ReadExReq_avg_mshr_miss_latency::total 65494.055661                       # average ReadExReq mshr miss latency
system.l2.ReadCleanReq_hits::.switch_cpus.inst          234                       # number of ReadCleanReq hits
system.l2.ReadCleanReq_hits::total                234                       # number of ReadCleanReq hits
system.l2.ReadCleanReq_misses::.cpu.inst            1                       # number of ReadCleanReq misses
system.l2.ReadCleanReq_misses::.switch_cpus.inst          157                       # number of ReadCleanReq misses
system.l2.ReadCleanReq_misses::total              158                       # number of ReadCleanReq misses
system.l2.ReadCleanReq_miss_latency::.switch_cpus.inst     13361500                       # number of ReadCleanReq miss cycles
system.l2.ReadCleanReq_miss_latency::total     13361500                       # number of ReadCleanReq miss cycles
system.l2.ReadCleanReq_accesses::.cpu.inst            1                       # number of ReadCleanReq accesses(hits+misses)
system.l2.ReadCleanReq_accesses::.switch_cpus.inst          391                       # number of ReadCleanReq accesses(hits+misses)
system.l2.ReadCleanReq_accesses::total            392                       # number of ReadCleanReq accesses(hits+misses)
system.l2.ReadCleanReq_miss_rate::.cpu.inst            1                       # miss rate for ReadCleanReq accesses
system.l2.ReadCleanReq_miss_rate::.switch_cpus.inst     0.401535                       # miss rate for ReadCleanReq accesses
[...]
system.cpu.itb_walker_cache.blocked_cycles::no_targets            0                       # number of cycles access was blocked
system.cpu.itb_walker_cache.blocked::no_mshrs            0                       # number of cycles access was blocked
system.cpu.itb_walker_cache.blocked::no_targets            0                       # number of cycles access was blocked
system.cpu.itb_walker_cache.avg_blocked_cycles::no_mshrs          nan                       # average number of cycles each access was blocked
system.cpu.itb_walker_cache.avg_blocked_cycles::no_targets          nan                       # average number of cycles each access was blocked
system.cpu.itb_walker_cache.replacements            0                       # number of replacements
system.cpu.itb_walker_cache.tags.pwrStateResidencyTicks::UNDEFINED 81947932158000                       # Cumulative time (in ticks) in various power states
system.cpu.itb_walker_cache.tags.tagsinuse            0                       # Cycle average of tags in use
system.cpu.itb_walker_cache.tags.total_refs            0                       # Total number of references to valid blocks.
system.cpu.itb_walker_cache.tags.sampled_refs            0                       # Sample count of references to valid blocks.
system.cpu.itb_walker_cache.tags.avg_refs          nan                       # Average number of references to valid blocks.
system.cpu.itb_walker_cache.tags.warmup_cycle            0                       # Cycle when the warmup percentage was hit.
system.cpu.itb_walker_cache.tags.tag_accesses            0                       # Number of tag accesses
system.cpu.itb_walker_cache.tags.data_accesses            0                       # Number of data accesses
system.cpu.itb.walker.pwrStateResidencyTicks::UNDEFINED 81947932158000                       # Cumulative time (in ticks) in various power states
system.cpu.dtb_walker_cache.pwrStateResidencyTicks::UNDEFINED 81947932158000                       # Cumulative time (in ticks) in various power states
system.cpu.dtb_walker_cache.blocked_cycles::no_mshrs            0                       # number of cycles access was blocked
system.cpu.dtb_walker_cache.blocked_cycles::no_targets            0                       # number of cycles access was blocked
system.cpu.dtb_walker_cache.blocked::no_mshrs            0                       # number of cycles access was blocked
system.cpu.dtb_walker_cache.blocked::no_targets            0                       # number of cycles access was blocked
system.cpu.dtb_walker_cache.avg_blocked_cycles::no_mshrs          nan                       # average number of cycles each access was blocked
system.cpu.dtb_walker_cache.avg_blocked_cycles::no_targets          nan                       # average number of cycles each access was blocked
system.cpu.dtb_walker_cache.replacements            0                       # number of replacements
system.cpu.dtb_walker_cache.tags.pwrStateResidencyTicks::UNDEFINED 81947932158000                       # Cumulative time (in ticks) in various power states
system.cpu.dtb_walker_cache.tags.tagsinuse            0                       # Cycle average of tags in use
system.cpu.dtb_walker_cache.tags.total_refs            0                       # Total number of references to valid blocks.
system.cpu.dtb_walker_cache.tags.sampled_refs            0                       # Sample count of references to valid blocks.
system.cpu.dtb_walker_cache.tags.avg_refs          nan                       # Average number of references to valid blocks.
system.cpu.dtb_walker_cache.tags.warmup_cycle            0                       # Cycle when the warmup percentage was hit.
system.cpu.dtb_walker_cache.tags.tag_accesses            0                       # Number of tag accesses
system.cpu.dtb_walker_cache.tags.data_accesses            0                       # Number of data accesses
system.cpu.dcache.pwrStateResidencyTicks::UNDEFINED 81947932158000                       # Cumulative time (in ticks) in various power states
system.cpu.dcache.demand_hits::.cpu.data            1                       # number of demand (read+write) hits
system.cpu.dcache.demand_hits::.switch_cpus.data     18674253                       # number of demand (read+write) hits
system.cpu.dcache.demand_hits::total         18674254                       # number of demand (read+write) hits
system.cpu.dcache.overall_hits::.cpu.data            1                       # number of overall hits
system.cpu.dcache.overall_hits::.switch_cpus.data     18674253                       # number of overall hits
system.cpu.dcache.overall_hits::total        18674254                       # number of overall hits
system.cpu.dcache.demand_misses::.cpu.data            6                       # number of demand (read+write) misses
system.cpu.dcache.demand_misses::.switch_cpus.data       108863                       # number of demand (read+write) misses
system.cpu.dcache.demand_misses::total         108869                       # number of demand (read+write) misses
system.cpu.dcache.overall_misses::.cpu.data            6                       # number of overall misses
system.cpu.dcache.overall_misses::.switch_cpus.data       108863                       # number of overall misses
system.cpu.dcache.overall_misses::total        108869                       # number of overall misses
system.cpu.dcache.demand_miss_latency::.switch_cpus.data   2688788495                       # number of demand (read+write) miss cycles
system.cpu.dcache.demand_miss_latency::total   2688788495                       # number of demand (read+write) miss cycles
system.cpu.dcache.overall_miss_latency::.switch_cpus.data   2688788495                       # number of overall miss cycles
system.cpu.dcache.overall_miss_latency::total   2688788495                       # number of overall miss cycles
system.cpu.dcache.demand_accesses::.cpu.data            7                       # number of demand (read+write) accesses
system.cpu.dcache.demand_accesses::.switch_cpus.data     18783116                       # number of demand (read+write) accesses
system.cpu.dcache.demand_accesses::total     18783123                       # number of demand (read+write) accesses
system.cpu.dcache.overall_accesses::.cpu.data            7                       # number of overall (read+write) accesses
system.cpu.dcache.overall_accesses::.switch_cpus.data     18783116                       # number of overall (read+write) accesses
system.cpu.dcache.overall_accesses::total     18783123                       # number of overall (read+write) accesses
system.cpu.dcache.demand_miss_rate::.cpu.data     0.857143                       # miss rate for demand accesses
system.cpu.dcache.demand_miss_rate::.switch_cpus.data     0.005796                       # miss rate for demand accesses
system.cpu.dcache.demand_miss_rate::total     0.005796                       # miss rate for demand accesses
system.cpu.dcache.overall_miss_rate::.cpu.data     0.857143                       # miss rate for overall accesses
system.cpu.dcache.overall_miss_rate::.switch_cpus.data     0.005796                       # miss rate for overall accesses
system.cpu.dcache.overall_miss_rate::total     0.005796                       # miss rate for overall accesses
system.cpu.dcache.demand_avg_miss_latency::.switch_cpus.data 24698.827839                       # average overall miss latency
system.cpu.dcache.demand_avg_miss_latency::total 24697.466634                       # average overall miss latency
system.cpu.dcache.overall_avg_miss_latency::.switch_cpus.data 24698.827839                       # average overall miss latency
system.cpu.dcache.overall_avg_miss_latency::total 24697.466634                       # average overall miss latency
system.cpu.dcache.blocked_cycles::no_mshrs        15152                       # number of cycles access was blocked
system.cpu.dcache.blocked_cycles::no_targets          118                       # number of cycles access was blocked
system.cpu.dcache.blocked::no_mshrs               753                       # number of cycles access was blocked
system.cpu.dcache.blocked::no_targets               1                       # number of cycles access was blocked
system.cpu.dcache.avg_blocked_cycles::no_mshrs    20.122178                       # average number of cycles each access was blocked
system.cpu.dcache.avg_blocked_cycles::no_targets          118                       # average number of cycles each access was blocked
system.cpu.dcache.writebacks::.writebacks        81569                       # number of writebacks
system.cpu.dcache.writebacks::total             81569                       # number of writebacks
system.cpu.dcache.demand_mshr_hits::.switch_cpus.data         3964                       # number of demand (read+write) MSHR hits
system.cpu.dcache.demand_mshr_hits::total         3964                       # number of demand (read+write) MSHR hits
system.cpu.dcache.overall_mshr_hits::.switch_cpus.data         3964                       # number of overall MSHR hits
system.cpu.dcache.overall_mshr_hits::total         3964                       # number of overall MSHR hits
system.cpu.dcache.demand_mshr_misses::.switch_cpus.data       104899                       # number of demand (read+write) MSHR misses
system.cpu.dcache.demand_mshr_misses::total       104899                       # number of demand (read+write) MSHR misses
system.cpu.dcache.overall_mshr_misses::.switch_cpus.data       104899                       # number of overall MSHR misses
system.cpu.dcache.overall_mshr_misses::total       104899                       # number of overall MSHR misses
system.cpu.dcache.demand_mshr_miss_latency::.switch_cpus.data   2492457495                       # number of demand (read+write) MSHR miss cycles
system.cpu.dcache.demand_mshr_miss_latency::total   2492457495                       # number of demand (read+write) MSHR miss cycles
system.cpu.dcache.overall_mshr_miss_latency::.switch_cpus.data   2492457495                       # number of overall MSHR miss cycles
system.cpu.dcache.overall_mshr_miss_latency::total   2492457495                       # number of overall MSHR miss cycles
system.cpu.dcache.demand_mshr_miss_rate::.switch_cpus.data     0.005585                       # mshr miss rate for demand accesses
system.cpu.dcache.demand_mshr_miss_rate::total     0.005585                       # mshr miss rate for demand accesses
system.cpu.dcache.overall_mshr_miss_rate::.switch_cpus.data     0.005585                       # mshr miss rate for overall accesses
system.cpu.dcache.overall_mshr_miss_rate::total     0.005585                       # mshr miss rate for overall accesses
system.cpu.dcache.demand_avg_mshr_miss_latency::.switch_cpus.data 23760.545811                       # average overall mshr miss latency
system.cpu.dcache.demand_avg_mshr_miss_latency::total 23760.545811                       # average overall mshr miss latency
system.cpu.dcache.overall_avg_mshr_miss_latency::.switch_cpus.data 23760.545811                       # average overall mshr miss latency
system.cpu.dcache.overall_avg_mshr_miss_latency::total 23760.545811                       # average overall mshr miss latency
system.cpu.dcache.replacements                 103881                       # number of replacements
system.cpu.dcache.ReadReq_hits::.switch_cpus.data     13164464                       # number of ReadReq hits
system.cpu.dcache.ReadReq_hits::total        13164464                       # number of ReadReq hits
system.cpu.dcache.ReadReq_misses::.cpu.data            5                       # number of ReadReq misses
system.cpu.dcache.ReadReq_misses::.switch_cpus.data        28563                       # number of ReadReq misses
system.cpu.dcache.ReadReq_misses::total         28568                       # number of ReadReq misses
system.cpu.dcache.ReadReq_miss_latency::.switch_cpus.data    832467500                       # number of ReadReq miss cycles
system.cpu.dcache.ReadReq_miss_latency::total    832467500                       # number of ReadReq miss cycles
system.cpu.dcache.ReadReq_accesses::.cpu.data            5                       # number of ReadReq accesses(hits+misses)
system.cpu.dcache.ReadReq_accesses::.switch_cpus.data     13193027                       # number of ReadReq accesses(hits+misses)
system.cpu.dcache.ReadReq_accesses::total     13193032                       # number of ReadReq accesses(hits+misses)
system.cpu.dcache.ReadReq_miss_rate::.cpu.data            1                       # miss rate for ReadReq accesses
system.cpu.dcache.ReadReq_miss_rate::.switch_cpus.data     0.002165                       # miss rate for ReadReq accesses
system.cpu.dcache.ReadReq_miss_rate::total     0.002165                       # miss rate for ReadReq accesses
system.cpu.dcache.ReadReq_avg_miss_latency::.switch_cpus.data 29144.960263                       # average ReadReq miss latency
system.cpu.dcache.ReadReq_avg_miss_latency::total 29139.859283                       # average ReadReq miss latency
system.cpu.dcache.ReadReq_mshr_hits::.switch_cpus.data         3963                       # number of ReadReq MSHR hits
system.cpu.dcache.ReadReq_mshr_hits::total         3963                       # number of ReadReq MSHR hits
system.cpu.dcache.ReadReq_mshr_misses::.switch_cpus.data        24600                       # number of ReadReq MSHR misses
system.cpu.dcache.ReadReq_mshr_misses::total        24600                       # number of ReadReq MSHR misses
system.cpu.dcache.ReadReq_mshr_miss_latency::.switch_cpus.data    716473000                       # number of ReadReq MSHR miss cycles
system.cpu.dcache.ReadReq_mshr_miss_latency::total    716473000                       # number of ReadReq MSHR miss cycles
system.cpu.dcache.ReadReq_mshr_miss_rate::.switch_cpus.data     0.001865                       # mshr miss rate for ReadReq accesses
system.cpu.dcache.ReadReq_mshr_miss_rate::total     0.001865                       # mshr miss rate for ReadReq accesses
system.cpu.dcache.ReadReq_avg_mshr_miss_latency::.switch_cpus.data 29124.918699                       # average ReadReq mshr miss latency
system.cpu.dcache.ReadReq_avg_mshr_miss_latency::total 29124.918699                       # average ReadReq mshr miss latency
system.cpu.dcache.WriteReq_hits::.cpu.data            1                       # number of WriteReq hits
system.cpu.dcache.WriteReq_hits::.switch_cpus.data      5509789                       # number of WriteReq hits
system.cpu.dcache.WriteReq_hits::total        5509790                       # number of WriteReq hits
system.cpu.dcache.WriteReq_misses::.cpu.data            1                       # number of WriteReq misses
system.cpu.dcache.WriteReq_misses::.switch_cpus.data        80300                       # number of WriteReq misses
system.cpu.dcache.WriteReq_misses::total        80301                       # number of WriteReq misses
system.cpu.dcache.WriteReq_miss_latency::.switch_cpus.data   1856320995                       # number of WriteReq miss cycles
system.cpu.dcache.WriteReq_miss_latency::total   1856320995                       # number of WriteReq miss cycles
system.cpu.dcache.WriteReq_accesses::.cpu.data            2                       # number of WriteReq accesses(hits+misses)
system.cpu.dcache.WriteReq_accesses::.switch_cpus.data      5590089                       # number of WriteReq accesses(hits+misses)
system.cpu.dcache.WriteReq_accesses::total      5590091                       # number of WriteReq accesses(hits+misses)
system.cpu.dcache.WriteReq_miss_rate::.cpu.data     0.500000                       # miss rate for WriteReq accesses
system.cpu.dcache.WriteReq_miss_rate::.switch_cpus.data     0.014365                       # miss rate for WriteReq accesses
system.cpu.dcache.WriteReq_miss_rate::total     0.014365                       # miss rate for WriteReq accesses
system.cpu.dcache.WriteReq_avg_miss_latency::.switch_cpus.data 23117.322478                       # average WriteReq miss latency
system.cpu.dcache.WriteReq_avg_miss_latency::total 23117.034595                       # average WriteReq miss latency
system.cpu.dcache.WriteReq_mshr_hits::.switch_cpus.data            1                       # number of WriteReq MSHR hits
system.cpu.dcache.WriteReq_mshr_hits::total            1                       # number of WriteReq MSHR hits
system.cpu.dcache.WriteReq_mshr_misses::.switch_cpus.data        80299                       # number of WriteReq MSHR misses
system.cpu.dcache.WriteReq_mshr_misses::total        80299                       # number of WriteReq MSHR misses
system.cpu.dcache.WriteReq_mshr_miss_latency::.switch_cpus.data   1775984495                       # number of WriteReq MSHR miss cycles
system.cpu.dcache.WriteReq_mshr_miss_latency::total   1775984495                       # number of WriteReq MSHR miss cycles
system.cpu.dcache.WriteReq_mshr_miss_rate::.switch_cpus.data     0.014365                       # mshr miss rate for WriteReq accesses
system.cpu.dcache.WriteReq_mshr_miss_rate::total     0.014365                       # mshr miss rate for WriteReq accesses
system.cpu.dcache.WriteReq_avg_mshr_miss_latency::.switch_cpus.data 22117.143364                       # average WriteReq mshr miss latency
system.cpu.dcache.WriteReq_avg_mshr_miss_latency::total 22117.143364                       # average WriteReq mshr miss latency
system.cpu.dcache.tags.pwrStateResidencyTicks::UNDEFINED 81947932158000                       # Cumulative time (in ticks) in various power states
system.cpu.dcache.tags.tagsinuse             0.134458                       # Cycle average of tags in use
system.cpu.dcache.tags.total_refs            18779159                       # Total number of references to valid blocks.
system.cpu.dcache.tags.sampled_refs            104905                       # Sample count of references to valid blocks.
system.cpu.dcache.tags.avg_refs            179.011096                       # Average number of references to valid blocks.
system.cpu.dcache.tags.warmup_cycle      81937068258000                       # Cycle when the warmup percentage was hit.
system.cpu.dcache.tags.occ_blocks::.cpu.data     0.000402                       # Average occupied blocks per requestor
system.cpu.dcache.tags.occ_blocks::.switch_cpus.data     0.134056                       # Average occupied blocks per requestor
system.cpu.dcache.tags.occ_percent::.cpu.data     0.000000                       # Average percentage of cache occupancy
system.cpu.dcache.tags.occ_percent::.switch_cpus.data     0.000131                       # Average percentage of cache occupancy
system.cpu.dcache.tags.occ_percent::total     0.000131                       # Average percentage of cache occupancy
system.cpu.dcache.tags.occ_task_id_blocks::1024         1024                       # Occupied blocks per task id
system.cpu.dcache.tags.age_task_id_blocks_1024::0           54                       # Occupied blocks per task id
system.cpu.dcache.tags.age_task_id_blocks_1024::1          536                       # Occupied blocks per task id
system.cpu.dcache.tags.age_task_id_blocks_1024::2          395                       # Occupied blocks per task id
system.cpu.dcache.tags.age_task_id_blocks_1024::3           14                       # Occupied blocks per task id
system.cpu.dcache.tags.age_task_id_blocks_1024::4           25                       # Occupied blocks per task id
system.cpu.dcache.tags.occ_task_id_percent::1024            1                       # Percentage of cache occupancy per task id
system.cpu.dcache.tags.tag_accesses          37671151                       # Number of tag accesses
system.cpu.dcache.tags.data_accesses         37671151                       # Number of data accesses

---------- End Simulation Statistics   ----------
