
---------- Begin Simulation Statistics ----------
final_tick                               190188097327000                       # Number of ticks from beginning of simulation (restored from checkpoints and never reset)
host_inst_rate                                  20749                       # Simulator instruction rate (inst/s)
host_mem_usage                                 827520                       # Number of bytes of host memory used
host_op_rate                                    36444                       # Simulator op (including micro ops) rate (op/s)
host_seconds                                   481.95                       # Real time elapsed on the host
host_tick_rate                               77940267                       # Simulator tick rate (ticks/s)
sim_freq                                 1000000000000                       # Frequency of simulated ticks
sim_insts                                    10000010                       # Number of instructions simulated
sim_ops                                      17564243                       # Number of ops (including micro ops) simulated
sim_seconds                                  0.037563                       # Number of seconds simulated
sim_ticks                                 37563058250                       # Number of ticks simulated
system.cpu.Branches                                 4                       # Number of branches fetched
system.cpu.committedInsts                          10                       # Number of instructions committed
system.cpu.committedOps                            20                       # Number of ops (including micro ops) committed
system.cpu.dtb.rdAccesses                           2                       # TLB accesses on read requests
system.cpu.dtb.rdMisses                             1                       # TLB misses on read requests
system.cpu.dtb.wrAccesses                           0                       # TLB accesses on write requests
system.cpu.dtb.wrMisses                             0                       # TLB misses on write requests
system.cpu.idle_fraction                            0                       # Percentage of idle cycles
system.cpu.itb.rdAccesses                           0                       # TLB accesses on read requests
system.cpu.itb.rdMisses                             0                       # TLB misses on read requests
system.cpu.itb.wrAccesses                          12                       # TLB accesses on write requests
system.cpu.itb.wrMisses                             0                       # TLB misses on write requests
system.cpu.not_idle_fraction                        1                       # Percentage of non-idle cycles
system.cpu.numCycles                               22                       # number of cpu cycles simulated
system.cpu.numWorkItemsCompleted                    0                       # number of work items this cpu completed
system.cpu.numWorkItemsStarted                      0                       # number of work items this cpu started
system.cpu.num_busy_cycles                         22                       # Number of busy cycles
system.cpu.num_cc_register_reads                   21                       # number of times the CC registers were read
system.cpu.num_cc_register_writes                  10                       # number of times the CC registers were written
system.cpu.num_conditional_control_insts            4                       # number of instructions that are conditional controls
system.cpu.num_fp_alu_accesses                      0                       # Number of float alu accesses
system.cpu.num_fp_insts                             0                       # number of float instructions
system.cpu.num_fp_register_reads                    0                       # number of times the floating registers were read
system.cpu.num_fp_register_writes                   0                       # number of times the floating registers were written
system.cpu.num_func_calls                           0                       # number of times a function call or return occured
system.cpu.num_idle_cycles                          0                       # Number of idle cycles
system.cpu.num_int_alu_accesses                    20                       # Number of integer alu accesses
system.cpu.num_int_insts                           20                       # number of integer instructions
system.cpu.num_int_register_reads                  32                       # number of times the integer registers were read
system.cpu.num_int_register_writes                 16                       # number of times the integer registers were written
system.cpu.num_load_insts                           2                       # Number of load instructions
system.cpu.num_mem_refs                             2                       # number of memory refs
system.cpu.num_store_insts                          0                       # Number of store instructions
system.cpu.num_vec_alu_accesses                     0                       # Number of vector alu accesses
system.cpu.num_vec_insts                            0                       # number of vector instructions
system.cpu.num_vec_register_reads                   0                       # number of times the vector registers were read
system.cpu.num_vec_register_writes                  0                       # number of times the vector registers were written
system.cpu.op_class::No_OpClass                     0      0.00%      0.00% # Class of executed instruction
system.cpu.op_class::IntAlu                        18     90.00%     90.00% # Class of executed instruction
system.cpu.op_class::IntMult                        0      0.00%     90.00% # Class of executed instruction
system.cpu.op_class::IntDiv                         0      0.00%     90.00% # Class of executed instruction
system.cpu.op_class::FloatAdd                       0      0.00%     90.00% # Class of executed instruction
system.cpu.op_class::FloatCmp                       0      0.00%     90.00% # Class of executed instruction
system.cpu.op_class::FloatCvt                       0      0.00%     90.00% # Class of executed instruction
system.cpu.op_class::FloatMult                      0      0.00%     90.00% # Class of executed instruction
system.cpu.op_class::FloatMultAcc                   0      0.00%     90.00% # Class of executed instruction
system.cpu.op_class::FloatDiv                       0      0.00%     90.00% # Class of executed instruction
system.cpu.op_class::FloatMisc                      0      0.00%     90.00% # Class of executed instruction
system.cpu.op_class::FloatSqrt                      0      0.00%     90.00% # Class of executed instruction
system.cpu.op_class::SimdAdd                        0      0.00%     90.00% # Class of executed instruction
system.cpu.op_class::SimdAddAcc                     0      0.00%     90.00% # Class of executed instruction
system.cpu.op_class::SimdAlu                        0      0.00%     90.00% # Class of executed instruction
system.cpu.op_class::SimdCmp                        0      0.00%     90.00% # Class of executed instruction
system.cpu.op_class::SimdCvt                        0      0.00%     90.00% # Class of executed instruction
system.cpu.op_class::SimdMisc                       0      0.00%     90.00% # Class of executed instruction
system.cpu.op_class::SimdMult                       0      0.00%     90.00% # Class of executed instruction
system.cpu.op_class::SimdMultAcc                    0      0.00%     90.00% # Class of executed instruction
system.cpu.op_class::SimdShift                      0      0.00%     90.00% # Class of executed instruction
system.cpu.op_class::SimdShiftAcc                   0      0.00%     90.00% # Class of executed instruction
system.cpu.op_class::SimdDiv                        0      0.00%     90.00% # Class of executed instruction
system.cpu.op_class::SimdSqrt                       0      0.00%     90.00% # Class of executed instruction
system.cpu.op_class::SimdFloatAdd                   0      0.00%     90.00% # Class of executed instruction
system.cpu.op_class::SimdFloatAlu                   0      0.00%     90.00% # Class of executed instruction
system.cpu.op_class::SimdFloatCmp                   0      0.00%     90.00% # Class of executed instruction
system.cpu.op_class::SimdFloatCvt                   0      0.00%     90.00% # Class of executed instruction
system.cpu.op_class::SimdFloatDiv                   0      0.00%     90.00% # Class of executed instruction
system.cpu.op_class::SimdFloatMisc                  0      0.00%     90.00% # Class of executed instruction
system.cpu.op_class::SimdFloatMult                  0      0.00%     90.00% # Class of executed instruction
system.cpu.op_class::SimdFloatMultAcc               0      0.00%     90.00% # Class of executed instruction
system.cpu.op_class::SimdFloatSqrt                  0      0.00%     90.00% # Class of executed instruction
system.cpu.op_class::SimdReduceAdd                  0      0.00%     90.00% # Class of executed instruction
system.cpu.op_class::SimdReduceAlu                  0      0.00%     90.00% # Class of executed instruction
system.cpu.op_class::SimdReduceCmp                  0      0.00%     90.00% # Class of executed instruction
system.cpu.op_class::SimdFloatReduceAdd             0      0.00%     90.00% # Class of executed instruction
system.cpu.op_class::SimdFloatReduceCmp             0      0.00%     90.00% # Class of executed instruction
system.cpu.op_class::SimdAes                        0      0.00%     90.00% # Class of executed instruction
system.cpu.op_class::SimdAesMix                     0      0.00%     90.00% # Class of executed instruction
system.cpu.op_class::SimdSha1Hash                   0      0.00%     90.00% # Class of executed instruction
system.cpu.op_class::SimdSha1Hash2                  0      0.00%     90.00% # Class of executed instruction
system.cpu.op_class::SimdSha256Hash                 0      0.00%     90.00% # Class of executed instruction
system.cpu.op_class::SimdSha256Hash2                0      0.00%     90.00% # Class of executed instruction
system.cpu.op_class::SimdShaSigma2                  0      0.00%     90.00% # Class of executed instruction
system.cpu.op_class::SimdShaSigma3                  0      0.00%     90.00% # Class of executed instruction
system.cpu.op_class::SimdPredAlu                    0      0.00%     90.00% # Class of executed instruction
system.cpu.op_class::MemRead                        2     10.00%    100.00% # Class of executed instruction
system.cpu.op_class::MemWrite                       0      0.00%    100.00% # Class of executed instruction
system.cpu.op_class::FloatMemRead                   0      0.00%    100.00% # Class of executed instruction
system.cpu.op_class::FloatMemWrite                  0      0.00%    100.00% # Class of executed instruction
system.cpu.op_class::IprAccess                      0      0.00%    100.00% # Class of executed instruction
system.cpu.op_class::InstPrefetch                   0      0.00%    100.00% # Class of executed instruction
system.cpu.op_class::total                         20                       # Class of executed instruction
system.cpu.workload.numSyscalls                     0                       # Number of system calls
system.membus.snoop_filter.hit_multi_requests            0                       # Number of requests hitting in the snoop filter with multiple (>1) holders of the requested data.
system.membus.snoop_filter.hit_multi_snoops            0                       # Number of snoops hitting in the snoop filter with multiple (>1) holders of the requested data.
system.membus.snoop_filter.hit_single_requests      1210098                       # Number of requests hitting in the snoop filter with a single holder of the requested data.
system.membus.snoop_filter.hit_single_snoops            0                       # Number of snoops hitting in the snoop filter with a single holder of the requested data.
system.membus.snoop_filter.tot_requests       2422360                       # Total number of requests made to the snoop filter.
system.membus.snoop_filter.tot_snoops               0                       # Total number of snoops made to the snoop filter.
system.switch_cpus.branchPred.BTBCorrect            0                       # Number of correct BTB predictions (this stat may not work properly.
system.switch_cpus.branchPred.BTBHitPct      0.000000                       # BTB Hit Percentage
system.switch_cpus.branchPred.BTBHits               0                       # Number of BTB hits
system.switch_cpus.branchPred.BTBLookups      3067442                       # Number of BTB lookups
system.switch_cpus.branchPred.RASInCorrect            1                       # Number of incorrect RAS predictions.
system.switch_cpus.branchPred.condIncorrect       173608                       # Number of conditional branches incorrect
system.switch_cpus.branchPred.condPredicted      4224880                       # Number of conditional branches predicted
system.switch_cpus.branchPred.indirectHits      1893581                       # Number of indirect target hits.
system.switch_cpus.branchPred.indirectLookups      3067442                       # Number of indirect predictor lookups.
system.switch_cpus.branchPred.indirectMisses      1173861                       # Number of indirect misses.
system.switch_cpus.branchPred.lookups         4285512                       # Number of BP lookups
system.switch_cpus.branchPred.usedRAS           32272                       # Number of times the RAS was used to get a target.
system.switch_cpus.branchPredindirectMispredicted       115533                       # Number of mispredicted indirect branches.
system.switch_cpus.cc_regfile_reads          15719467                       # number of cc regfile reads
system.switch_cpus.cc_regfile_writes          9246024                       # number of cc regfile writes
system.switch_cpus.commit.amos                      0                       # Number of atomic instructions committed
system.switch_cpus.commit.branchMispredicts       173628                       # The number of times a branch was mispredicted
system.switch_cpus.commit.branches            2713376                       # Number of branches committed
system.switch_cpus.commit.bw_lim_events       1325586                       # number cycles where commit BW limit reached
system.switch_cpus.commit.commitSquashedInsts      6702753                       # The number of squashed insts skipped by commit
system.switch_cpus.commit.committedInsts     10000000                       # Number of instructions committed
system.switch_cpus.commit.committedOps       17564223                       # Number of ops (including micro ops) committed
system.switch_cpus.commit.committed_per_cycle::samples     74088974                       # Number of insts commited each cycle
system.switch_cpus.commit.committed_per_cycle::mean     0.237069                       # Number of insts commited each cycle
system.switch_cpus.commit.committed_per_cycle::stdev     1.171912                       # Number of insts commited each cycle
system.switch_cpus.commit.committed_per_cycle::underflows            0      0.00%      0.00% # Number of insts commited each cycle
system.switch_cpus.commit.committed_per_cycle::0     69698058     94.07%     94.07% # Number of insts commited each cycle
system.switch_cpus.commit.committed_per_cycle::1      1190895      1.61%     95.68% # Number of insts commited each cycle
system.switch_cpus.commit.committed_per_cycle::2       541625      0.73%     96.41% # Number of insts commited each cycle
system.switch_cpus.commit.committed_per_cycle::3       966540      1.30%     97.72% # Number of insts commited each cycle
system.switch_cpus.commit.committed_per_cycle::4       152429      0.21%     97.92% # Number of insts commited each cycle
system.switch_cpus.commit.committed_per_cycle::5       138053      0.19%     98.11% # Number of insts commited each cycle
system.switch_cpus.commit.committed_per_cycle::6        44727      0.06%     98.17% # Number of insts commited each cycle
system.switch_cpus.commit.committed_per_cycle::7        31061      0.04%     98.21% # Number of insts commited each cycle
system.switch_cpus.commit.committed_per_cycle::8      1325586      1.79%    100.00% # Number of insts commited each cycle
system.switch_cpus.commit.committed_per_cycle::overflows            0      0.00%    100.00% # Number of insts commited each cycle
system.switch_cpus.commit.committed_per_cycle::min_value            0                       # Number of insts commited each cycle
system.switch_cpus.commit.committed_per_cycle::max_value            8                       # Number of insts commited each cycle
system.switch_cpus.commit.committed_per_cycle::total     74088974                       # Number of insts commited each cycle
system.switch_cpus.commit.fp_insts                  0                       # Number of committed floating point instructions.
system.switch_cpus.commit.function_calls         2082                       # Number of function calls committed.
system.switch_cpus.commit.int_insts          17541010                       # Number of committed integer instructions.
system.switch_cpus.commit.loads               3923977                       # Number of loads committed
system.switch_cpus.commit.membars                   0                       # Number of memory barriers committed
system.switch_cpus.commit.op_class_0::No_OpClass        20038      0.11%      0.11% # Class of committed instruction
system.switch_cpus.commit.op_class_0::IntAlu     13353407     76.03%     76.14% # Class of committed instruction
system.switch_cpus.commit.op_class_0::IntMult          330      0.00%     76.14% # Class of committed instruction
system.switch_cpus.commit.op_class_0::IntDiv            0      0.00%     76.14% # Class of committed instruction
system.switch_cpus.commit.op_class_0::FloatAdd            0      0.00%     76.14% # Class of committed instruction
system.switch_cpus.commit.op_class_0::FloatCmp            0      0.00%     76.14% # Class of committed instruction
system.switch_cpus.commit.op_class_0::FloatCvt            0      0.00%     76.14% # Class of committed instruction
system.switch_cpus.commit.op_class_0::FloatMult            0      0.00%     76.14% # Class of committed instruction
system.switch_cpus.commit.op_class_0::FloatMultAcc            0      0.00%     76.14% # Class of committed instruction
system.switch_cpus.commit.op_class_0::FloatDiv            0      0.00%     76.14% # Class of committed instruction
system.switch_cpus.commit.op_class_0::FloatMisc            0      0.00%     76.14% # Class of committed instruction
system.switch_cpus.commit.op_class_0::FloatSqrt            0      0.00%     76.14% # Class of committed instruction
system.switch_cpus.commit.op_class_0::SimdAdd            0      0.00%     76.14% # Class of committed instruction
system.switch_cpus.commit.op_class_0::SimdAddAcc            0      0.00%     76.14% # Class of committed instruction
system.switch_cpus.commit.op_class_0::SimdAlu            0      0.00%     76.14% # Class of committed instruction
system.switch_cpus.commit.op_class_0::SimdCmp            0      0.00%     76.14% # Class of committed instruction
system.switch_cpus.commit.op_class_0::SimdCvt            0      0.00%     76.14% # Class of committed instruction
system.switch_cpus.commit.op_class_0::SimdMisc            0      0.00%     76.14% # Class of committed instruction
system.switch_cpus.commit.op_class_0::SimdMult            0      0.00%     76.14% # Class of committed instruction
system.switch_cpus.commit.op_class_0::SimdMultAcc            0      0.00%     76.14% # Class of committed instruction
system.switch_cpus.commit.op_class_0::SimdShift            0      0.00%     76.14% # Class of committed instruction
system.switch_cpus.commit.op_class_0::SimdShiftAcc            0      0.00%     76.14% # Class of committed instruction
system.switch_cpus.commit.op_class_0::SimdDiv            0      0.00%     76.14% # Class of committed instruction
system.switch_cpus.commit.op_class_0::SimdSqrt            0      0.00%     76.14% # Class of committed instruction
system.switch_cpus.commit.op_class_0::SimdFloatAdd            0      0.00%     76.14% # Class of committed instruction
system.switch_cpus.commit.op_class_0::SimdFloatAlu            0      0.00%     76.14% # Class of committed instruction
system.switch_cpus.commit.op_class_0::SimdFloatCmp            0      0.00%     76.14% # Class of committed instruction
system.switch_cpus.commit.op_class_0::SimdFloatCvt            0      0.00%     76.14% # Class of committed instruction
system.switch_cpus.commit.op_class_0::SimdFloatDiv            0      0.00%     76.14% # Class of committed instruction
system.switch_cpus.commit.op_class_0::SimdFloatMisc            0      0.00%     76.14% # Class of committed instruction
system.switch_cpus.commit.op_class_0::SimdFloatMult            0      0.00%     76.14% # Class of committed instruction
system.switch_cpus.commit.op_class_0::SimdFloatMultAcc            0      0.00%     76.14% # Class of committed instruction
system.switch_cpus.commit.op_class_0::SimdFloatSqrt            0      0.00%     76.14% # Class of committed instruction
system.switch_cpus.commit.op_class_0::SimdReduceAdd            0      0.00%     76.14% # Class of committed instruction
system.switch_cpus.commit.op_class_0::SimdReduceAlu            0      0.00%     76.14% # Class of committed instruction
system.switch_cpus.commit.op_class_0::SimdReduceCmp            0      0.00%     76.14% # Class of committed instruction
system.switch_cpus.commit.op_class_0::SimdFloatReduceAdd            0      0.00%     76.14% # Class of committed instruction
system.switch_cpus.commit.op_class_0::SimdFloatReduceCmp            0      0.00%     76.14% # Class of committed instruction
system.switch_cpus.commit.op_class_0::SimdAes            0      0.00%     76.14% # Class of committed instruction
system.switch_cpus.commit.op_class_0::SimdAesMix            0      0.00%     76.14% # Class of committed instruction
system.switch_cpus.commit.op_class_0::SimdSha1Hash            0      0.00%     76.14% # Class of committed instruction
system.switch_cpus.commit.op_class_0::SimdSha1Hash2            0      0.00%     76.14% # Class of committed instruction
system.switch_cpus.commit.op_class_0::SimdSha256Hash            0      0.00%     76.14% # Class of committed instruction
system.switch_cpus.commit.op_class_0::SimdSha256Hash2            0      0.00%     76.14% # Class of committed instruction
system.switch_cpus.commit.op_class_0::SimdShaSigma2            0      0.00%     76.14% # Class of committed instruction
system.switch_cpus.commit.op_class_0::SimdShaSigma3            0      0.00%     76.14% # Class of committed instruction
system.switch_cpus.commit.op_class_0::SimdPredAlu            0      0.00%     76.14% # Class of committed instruction
system.switch_cpus.commit.op_class_0::MemRead      3923977     22.34%     98.48% # Class of committed instruction
system.switch_cpus.commit.op_class_0::MemWrite       266471      1.52%    100.00% # Class of committed instruction
system.switch_cpus.commit.op_class_0::FloatMemRead            0      0.00%    100.00% # Class of committed instruction
system.switch_cpus.commit.op_class_0::FloatMemWrite            0      0.00%    100.00% # Class of committed instruction
system.switch_cpus.commit.op_class_0::IprAccess            0      0.00%    100.00% # Class of committed instruction
system.switch_cpus.commit.op_class_0::InstPrefetch            0      0.00%    100.00% # Class of committed instruction
system.switch_cpus.commit.op_class_0::total     17564223                       # Class of committed instruction
system.switch_cpus.commit.refs                4190448                       # Number of memory references committed
system.switch_cpus.commit.swp_count                 0                       # Number of s/w prefetches committed
system.switch_cpus.commit.vec_insts                 0                       # Number of committed Vector instructions.
system.switch_cpus.committedInsts            10000000                       # Number of Instructions Simulated
system.switch_cpus.committedOps              17564223                       # Number of Ops (including micro ops) Simulated
system.switch_cpus.cpi                       7.512609                       # CPI: Cycles Per Instruction
system.switch_cpus.cpi_total                 7.512609                       # CPI: Total CPI of All Threads
system.switch_cpus.decode.BlockedCycles      70107837                       # Number of cycles decode is blocked
system.switch_cpus.decode.DecodedInsts       26573097                       # Number of instructions handled by decode
system.switch_cpus.decode.IdleCycles          1260435                       # Number of cycles decode is idle
system.switch_cpus.decode.RunCycles           1903698                       # Number of cycles decode is running
system.switch_cpus.decode.SquashCycles         173870                       # Number of cycles decode is squashing
system.switch_cpus.decode.UnblockCycles       1676607                       # Number of cycles decode is unblocking
system.switch_cpus.dtb.rdAccesses             4627634                       # TLB accesses on read requests
system.switch_cpus.dtb.rdMisses               1391777                       # TLB misses on read requests
system.switch_cpus.dtb.wrAccesses              396601                       # TLB accesses on write requests
system.switch_cpus.dtb.wrMisses                 10303                       # TLB misses on write requests
system.switch_cpus.fetch.Branches             4285512                       # Number of branches that fetch encountered
system.switch_cpus.fetch.CacheLines            890601                       # Number of cache lines fetched
system.switch_cpus.fetch.Cycles              73960031                       # Number of cycles fetch has run and was not squashing or blocked
system.switch_cpus.fetch.IcacheSquashes         33010                       # Number of outstanding Icache misses that were squashed
system.switch_cpus.fetch.Insts               16806026                       # Number of instructions fetch has processed
system.switch_cpus.fetch.MiscStallCycles           20                       # Number of cycles fetch has spent waiting on interrupts, or bad addresses, or out of MSHRs
system.switch_cpus.fetch.PendingTrapStallCycles          192                       # Number of stall cycles due to pending traps
system.switch_cpus.fetch.SquashCycles          347740                       # Number of cycles fetch has spent squashing
system.switch_cpus.fetch.branchRate          0.057044                       # Number of branch fetches per cycle
system.switch_cpus.fetch.icacheStallCycles       988341                       # Number of cycles fetch is stalled on an Icache miss
system.switch_cpus.fetch.predictedBranches      1925853                       # Number of branches that fetch has predicted taken
system.switch_cpus.fetch.rate                0.223704                       # Number of inst fetches per cycle
system.switch_cpus.fetch.rateDist::samples     75122454                       # Number of instructions fetched each cycle (Total)
system.switch_cpus.fetch.rateDist::mean      0.389120                       # Number of instructions fetched each cycle (Total)
system.switch_cpus.fetch.rateDist::stdev     1.573072                       # Number of instructions fetched each cycle (Total)
system.switch_cpus.fetch.rateDist::underflows            0      0.00%      0.00% # Number of instructions fetched each cycle (Total)
system.switch_cpus.fetch.rateDist::0         70075305     93.28%     93.28% # Number of instructions fetched each cycle (Total)
system.switch_cpus.fetch.rateDist::1           308225      0.41%     93.69% # Number of instructions fetched each cycle (Total)
system.switch_cpus.fetch.rateDist::2           323122      0.43%     94.12% # Number of instructions fetched each cycle (Total)
system.switch_cpus.fetch.rateDist::3           348249      0.46%     94.59% # Number of instructions fetched each cycle (Total)
system.switch_cpus.fetch.rateDist::4           536827      0.71%     95.30% # Number of instructions fetched each cycle (Total)
system.switch_cpus.fetch.rateDist::5           818371      1.09%     96.39% # Number of instructions fetched each cycle (Total)
system.switch_cpus.fetch.rateDist::6           239104      0.32%     96.71% # Number of instructions fetched each cycle (Total)
system.switch_cpus.fetch.rateDist::7           227330      0.30%     97.01% # Number of instructions fetched each cycle (Total)
system.switch_cpus.fetch.rateDist::8          2245921      2.99%    100.00% # Number of instructions fetched each cycle (Total)
system.switch_cpus.fetch.rateDist::overflows            0      0.00%    100.00% # Number of instructions fetched each cycle (Total)
system.switch_cpus.fetch.rateDist::min_value            0                       # Number of instructions fetched each cycle (Total)
system.switch_cpus.fetch.rateDist::max_value            8                       # Number of instructions fetched each cycle (Total)
system.switch_cpus.fetch.rateDist::total     75122454                       # Number of instructions fetched each cycle (Total)
system.switch_cpus.fp_regfile_writes               56                       # number of floating regfile writes
system.switch_cpus.idleCycles                    3640                       # Total number of cycles that the CPU has spent unscheduled due to idling
system.switch_cpus.iew.branchMispredicts       220888                       # Number of branch mispredicts detected at execute
system.switch_cpus.iew.exec_branches          3108273                       # Number of branches executed
system.switch_cpus.iew.exec_nop                     0                       # number of nop insts executed
system.switch_cpus.iew.exec_rate             0.474830                       # Inst execution rate
system.switch_cpus.iew.exec_refs             18953287                       # number of memory reference insts executed
system.switch_cpus.iew.exec_stores             396593                       # Number of stores executed
system.switch_cpus.iew.exec_swp                     0                       # number of swp insts executed
system.switch_cpus.iew.iewBlockCycles        21522189                       # Number of cycles IEW is blocking
system.switch_cpus.iew.iewDispLoadInsts       5130423                       # Number of dispatched load instructions
system.switch_cpus.iew.iewDispNonSpecInsts            0                       # Number of dispatched non-speculative instructions
system.switch_cpus.iew.iewDispSquashedInsts        27543                       # Number of squashed instructions skipped by dispatch
system.switch_cpus.iew.iewDispStoreInsts       592789                       # Number of dispatched store instructions
system.switch_cpus.iew.iewDispatchedInsts     24258379                       # Number of instructions dispatched to IQ
system.switch_cpus.iew.iewExecLoadInsts      18556694                       # Number of load instructions executed
system.switch_cpus.iew.iewExecSquashedInsts       375938                       # Number of squashed instructions skipped in execute
system.switch_cpus.iew.iewExecutedInsts      35672150                       # Number of executed instructions
system.switch_cpus.iew.iewIQFullEvents         285665                       # Number of times the IQ has become full, causing a stall
system.switch_cpus.iew.iewIdleCycles                0                       # Number of cycles IEW is idle
system.switch_cpus.iew.iewLSQFullEvents      13408574                       # Number of times the LSQ has become full, causing a stall
system.switch_cpus.iew.iewSquashCycles         173870                       # Number of cycles IEW is squashing
system.switch_cpus.iew.iewUnblockCycles      13933308                       # Number of cycles IEW is unblocking
system.switch_cpus.iew.lsq.thread0.blockedLoads            0                       # Number of blocked loads due to partial load-store forwarding
system.switch_cpus.iew.lsq.thread0.cacheBlocked      1250673                       # Number of times an access to memory failed due to the cache being blocked
system.switch_cpus.iew.lsq.thread0.forwLoads        45102                       # Number of loads that had data forwarded from stores
system.switch_cpus.iew.lsq.thread0.ignoredResponses          372                       # Number of memory responses ignored because the instruction is squashed
system.switch_cpus.iew.lsq.thread0.invAddrLoads            0                       # Number of loads ignored due to an invalid address
system.switch_cpus.iew.lsq.thread0.invAddrSwpfs            0                       # Number of software prefetches ignored due to an invalid address
system.switch_cpus.iew.lsq.thread0.memOrderViolation          709                       # Number of memory ordering violations
system.switch_cpus.iew.lsq.thread0.rescheduledLoads            0                       # Number of loads that were rescheduled
system.switch_cpus.iew.lsq.thread0.squashedLoads      1206417                       # Number of loads squashed
system.switch_cpus.iew.lsq.thread0.squashedStores       326318                       # Number of stores squashed
system.switch_cpus.iew.memOrderViolationEvents          709                       # Number of memory order violations
system.switch_cpus.iew.predictedNotTakenIncorrect       179943                       # Number of branches that were predicted not taken incorrectly
system.switch_cpus.iew.predictedTakenIncorrect        40945                       # Number of branches that were predicted taken incorrectly
system.switch_cpus.iew.wb_consumers          21865818                       # num instructions consuming a value
system.switch_cpus.iew.wb_count              21371221                       # cumulative count of insts written-back
system.switch_cpus.iew.wb_fanout             0.713482                       # average fanout of values written-back
system.switch_cpus.iew.wb_producers          15600874                       # num instructions producing a value
system.switch_cpus.iew.wb_rate               0.284471                       # insts written-back per cycle
system.switch_cpus.iew.wb_sent               21430318                       # cumulative count of insts sent to commit
system.switch_cpus.int_regfile_reads         55615361                       # number of integer regfile reads
system.switch_cpus.int_regfile_writes        17805423                       # number of integer regfile writes
system.switch_cpus.ipc                       0.133110                       # IPC: Instructions Per Cycle
system.switch_cpus.ipc_total                 0.133110                       # IPC: Total IPC of All Threads
system.switch_cpus.iq.FU_type_0::No_OpClass        99774      0.28%      0.28% # Type of FU issued
system.switch_cpus.iq.FU_type_0::IntAlu      16893029     46.86%     47.14% # Type of FU issued
system.switch_cpus.iq.FU_type_0::IntMult          494      0.00%     47.14% # Type of FU issued
system.switch_cpus.iq.FU_type_0::IntDiv             0      0.00%     47.14% # Type of FU issued
system.switch_cpus.iq.FU_type_0::FloatAdd            0      0.00%     47.14% # Type of FU issued
system.switch_cpus.iq.FU_type_0::FloatCmp            0      0.00%     47.14% # Type of FU issued
system.switch_cpus.iq.FU_type_0::FloatCvt            0      0.00%     47.14% # Type of FU issued
system.switch_cpus.iq.FU_type_0::FloatMult            0      0.00%     47.14% # Type of FU issued
system.switch_cpus.iq.FU_type_0::FloatMultAcc            0      0.00%     47.14% # Type of FU issued
system.switch_cpus.iq.FU_type_0::FloatDiv            0      0.00%     47.14% # Type of FU issued
system.switch_cpus.iq.FU_type_0::FloatMisc            0      0.00%     47.14% # Type of FU issued
system.switch_cpus.iq.FU_type_0::FloatSqrt            0      0.00%     47.14% # Type of FU issued
system.switch_cpus.iq.FU_type_0::SimdAdd            0      0.00%     47.14% # Type of FU issued
system.switch_cpus.iq.FU_type_0::SimdAddAcc            0      0.00%     47.14% # Type of FU issued
system.switch_cpus.iq.FU_type_0::SimdAlu            0      0.00%     47.14% # Type of FU issued
system.switch_cpus.iq.FU_type_0::SimdCmp            0      0.00%     47.14% # Type of FU issued
system.switch_cpus.iq.FU_type_0::SimdCvt            0      0.00%     47.14% # Type of FU issued
system.switch_cpus.iq.FU_type_0::SimdMisc            0      0.00%     47.14% # Type of FU issued
system.switch_cpus.iq.FU_type_0::SimdMult            0      0.00%     47.14% # Type of FU issued
system.switch_cpus.iq.FU_type_0::SimdMultAcc            0      0.00%     47.14% # Type of FU issued
system.switch_cpus.iq.FU_type_0::SimdShift            0      0.00%     47.14% # Type of FU issued
system.switch_cpus.iq.FU_type_0::SimdShiftAcc            0      0.00%     47.14% # Type of FU issued
system.switch_cpus.iq.FU_type_0::SimdDiv            0      0.00%     47.14% # Type of FU issued
system.switch_cpus.iq.FU_type_0::SimdSqrt            0      0.00%     47.14% # Type of FU issued
system.switch_cpus.iq.FU_type_0::SimdFloatAdd            0      0.00%     47.14% # Type of FU issued
system.switch_cpus.iq.FU_type_0::SimdFloatAlu            0      0.00%     47.14% # Type of FU issued
system.switch_cpus.iq.FU_type_0::SimdFloatCmp            0      0.00%     47.14% # Type of FU issued
system.switch_cpus.iq.FU_type_0::SimdFloatCvt            0      0.00%     47.14% # Type of FU issued
system.switch_cpus.iq.FU_type_0::SimdFloatDiv            0      0.00%     47.14% # Type of FU issued
system.switch_cpus.iq.FU_type_0::SimdFloatMisc            0      0.00%     47.14% # Type of FU issued
system.switch_cpus.iq.FU_type_0::SimdFloatMult            0      0.00%     47.14% # Type of FU issued
system.switch_cpus.iq.FU_type_0::SimdFloatMultAcc            0      0.00%     47.14% # Type of FU issued
system.switch_cpus.iq.FU_type_0::SimdFloatSqrt            0      0.00%     47.14% # Type of FU issued
system.switch_cpus.iq.FU_type_0::SimdReduceAdd            0      0.00%     47.14% # Type of FU issued
system.switch_cpus.iq.FU_type_0::SimdReduceAlu            0      0.00%     47.14% # Type of FU issued
system.switch_cpus.iq.FU_type_0::SimdReduceCmp            0      0.00%     47.14% # Type of FU issued
system.switch_cpus.iq.FU_type_0::SimdFloatReduceAdd            0      0.00%     47.14% # Type of FU issued
system.switch_cpus.iq.FU_type_0::SimdFloatReduceCmp            0      0.00%     47.14% # Type of FU issued
system.switch_cpus.iq.FU_type_0::SimdAes            0      0.00%     47.14% # Type of FU issued
system.switch_cpus.iq.FU_type_0::SimdAesMix            0      0.00%     47.14% # Type of FU issued
system.switch_cpus.iq.FU_type_0::SimdSha1Hash            0      0.00%     47.14% # Type of FU issued
system.switch_cpus.iq.FU_type_0::SimdSha1Hash2            0      0.00%     47.14% # Type of FU issued
system.switch_cpus.iq.FU_type_0::SimdSha256Hash            0      0.00%     47.14% # Type of FU issued
system.switch_cpus.iq.FU_type_0::SimdSha256Hash2            0      0.00%     47.14% # Type of FU issued
system.switch_cpus.iq.FU_type_0::SimdShaSigma2            0      0.00%     47.14% # Type of FU issued
system.switch_cpus.iq.FU_type_0::SimdShaSigma3            0      0.00%     47.14% # Type of FU issued
system.switch_cpus.iq.FU_type_0::SimdPredAlu            0      0.00%     47.14% # Type of FU issued
system.switch_cpus.iq.FU_type_0::MemRead     18635184     51.70%     98.84% # Type of FU issued
system.switch_cpus.iq.FU_type_0::MemWrite       419608      1.16%    100.00% # Type of FU issued
system.switch_cpus.iq.FU_type_0::FloatMemRead            0      0.00%    100.00% # Type of FU issued
system.switch_cpus.iq.FU_type_0::FloatMemWrite            0      0.00%    100.00% # Type of FU issued
system.switch_cpus.iq.FU_type_0::IprAccess            0      0.00%    100.00% # Type of FU issued
system.switch_cpus.iq.FU_type_0::InstPrefetch            0      0.00%    100.00% # Type of FU issued
system.switch_cpus.iq.FU_type_0::total       36048089                       # Type of FU issued
system.switch_cpus.iq.fp_alu_accesses               0                       # Number of floating point alu accesses
system.switch_cpus.iq.fp_inst_queue_reads            0                       # Number of floating instruction queue reads
system.switch_cpus.iq.fp_inst_queue_wakeup_accesses            0                       # Number of floating instruction queue wakeup accesses
system.switch_cpus.iq.fp_inst_queue_writes            0                       # Number of floating instruction queue writes
system.switch_cpus.iq.fu_busy_cnt             2895150                       # FU busy when requested
system.switch_cpus.iq.fu_busy_rate           0.080314                       # FU busy rate (busy events/executed inst)
system.switch_cpus.iq.fu_full::No_OpClass            0      0.00%      0.00% # attempts to use FU when none available
system.switch_cpus.iq.fu_full::IntAlu           84770      2.93%      2.93% # attempts to use FU when none available
system.switch_cpus.iq.fu_full::IntMult              0      0.00%      2.93% # attempts to use FU when none available
system.switch_cpus.iq.fu_full::IntDiv               0      0.00%      2.93% # attempts to use FU when none available
system.switch_cpus.iq.fu_full::FloatAdd             0      0.00%      2.93% # attempts to use FU when none available
system.switch_cpus.iq.fu_full::FloatCmp             0      0.00%      2.93% # attempts to use FU when none available
system.switch_cpus.iq.fu_full::FloatCvt             0      0.00%      2.93% # attempts to use FU when none available
system.switch_cpus.iq.fu_full::FloatMult            0      0.00%      2.93% # attempts to use FU when none available
system.switch_cpus.iq.fu_full::FloatMultAcc            0      0.00%      2.93% # attempts to use FU when none available
system.switch_cpus.iq.fu_full::FloatDiv             0      0.00%      2.93% # attempts to use FU when none available
system.switch_cpus.iq.fu_full::FloatMisc            0      0.00%      2.93% # attempts to use FU when none available
system.switch_cpus.iq.fu_full::FloatSqrt            0      0.00%      2.93% # attempts to use FU when none available
system.switch_cpus.iq.fu_full::SimdAdd              0      0.00%      2.93% # attempts to use FU when none available
system.switch_cpus.iq.fu_full::SimdAddAcc            0      0.00%      2.93% # attempts to use FU when none available
system.switch_cpus.iq.fu_full::SimdAlu              0      0.00%      2.93% # attempts to use FU when none available
system.switch_cpus.iq.fu_full::SimdCmp              0      0.00%      2.93% # attempts to use FU when none available
system.switch_cpus.iq.fu_full::SimdCvt              0      0.00%      2.93% # attempts to use FU when none available
system.switch_cpus.iq.fu_full::SimdMisc             0      0.00%      2.93% # attempts to use FU when none available
system.switch_cpus.iq.fu_full::SimdMult             0      0.00%      2.93% # attempts to use FU when none available
system.switch_cpus.iq.fu_full::SimdMultAcc            0      0.00%      2.93% # attempts to use FU when none available
system.switch_cpus.iq.fu_full::SimdShift            0      0.00%      2.93% # attempts to use FU when none available
system.switch_cpus.iq.fu_full::SimdShiftAcc            0      0.00%      2.93% # attempts to use FU when none available
system.switch_cpus.iq.fu_full::SimdDiv              0      0.00%      2.93% # attempts to use FU when none available
system.switch_cpus.iq.fu_full::SimdSqrt             0      0.00%      2.93% # attempts to use FU when none available
system.switch_cpus.iq.fu_full::SimdFloatAdd            0      0.00%      2.93% # attempts to use FU when none available
system.switch_cpus.iq.fu_full::SimdFloatAlu            0      0.00%      2.93% # attempts to use FU when none available
system.switch_cpus.iq.fu_full::SimdFloatCmp            0      0.00%      2.93% # attempts to use FU when none available
system.switch_cpus.iq.fu_full::SimdFloatCvt            0      0.00%      2.93% # attempts to use FU when none available
system.switch_cpus.iq.fu_full::SimdFloatDiv            0      0.00%      2.93% # attempts to use FU when none available
system.switch_cpus.iq.fu_full::SimdFloatMisc            0      0.00%      2.93% # attempts to use FU when none available
system.switch_cpus.iq.fu_full::SimdFloatMult            0      0.00%      2.93% # attempts to use FU when none available
system.switch_cpus.iq.fu_full::SimdFloatMultAcc            0      0.00%      2.93% # attempts to use FU when none available
system.switch_cpus.iq.fu_full::SimdFloatSqrt            0      0.00%      2.93% # attempts to use FU when none available
system.switch_cpus.iq.fu_full::SimdReduceAdd            0      0.00%      2.93% # attempts to use FU when none available
system.switch_cpus.iq.fu_full::SimdReduceAlu            0      0.00%      2.93% # attempts to use FU when none available
system.switch_cpus.iq.fu_full::SimdReduceCmp            0      0.00%      2.93% # attempts to use FU when none available
system.switch_cpus.iq.fu_full::SimdFloatReduceAdd            0      0.00%      2.93% # attempts to use FU when none available
system.switch_cpus.iq.fu_full::SimdFloatReduceCmp            0      0.00%      2.93% # attempts to use FU when none available
system.switch_cpus.iq.fu_full::SimdAes              0      0.00%      2.93% # attempts to use FU when none available
system.switch_cpus.iq.fu_full::SimdAesMix            0      0.00%      2.93% # attempts to use FU when none available
system.switch_cpus.iq.fu_full::SimdSha1Hash            0      0.00%      2.93% # attempts to use FU when none available
system.switch_cpus.iq.fu_full::SimdSha1Hash2            0      0.00%      2.93% # attempts to use FU when none available
system.switch_cpus.iq.fu_full::SimdSha256Hash            0      0.00%      2.93% # attempts to use FU when none available
system.switch_cpus.iq.fu_full::SimdSha256Hash2            0      0.00%      2.93% # attempts to use FU when none available
system.switch_cpus.iq.fu_full::SimdShaSigma2            0      0.00%      2.93% # attempts to use FU when none available
system.switch_cpus.iq.fu_full::SimdShaSigma3            0      0.00%      2.93% # attempts to use FU when none available
system.switch_cpus.iq.fu_full::SimdPredAlu            0      0.00%      2.93% # attempts to use FU when none available
system.switch_cpus.iq.fu_full::MemRead        2791882     96.43%     99.36% # attempts to use FU when none available
system.switch_cpus.iq.fu_full::MemWrite         18498      0.64%    100.00% # attempts to use FU when none available
system.switch_cpus.iq.fu_full::FloatMemRead            0      0.00%    100.00% # attempts to use FU when none available
system.switch_cpus.iq.fu_full::FloatMemWrite            0      0.00%    100.00% # attempts to use FU when none available
system.switch_cpus.iq.fu_full::IprAccess            0      0.00%    100.00% # attempts to use FU when none available
system.switch_cpus.iq.fu_full::InstPrefetch            0      0.00%    100.00% # attempts to use FU when none available
system.switch_cpus.iq.int_alu_accesses       38843465                       # Number of integer alu accesses
system.switch_cpus.iq.int_inst_queue_reads    150265420                       # Number of integer instruction queue reads
system.switch_cpus.iq.int_inst_queue_wakeup_accesses     21371221                       # Number of integer instruction queue wakeup accesses
system.switch_cpus.iq.int_inst_queue_writes     30952737                       # Number of integer instruction queue writes
system.switch_cpus.iq.iqInstsAdded           24258379                       # Number of instructions added to the IQ (excludes non-spec)
system.switch_cpus.iq.iqInstsIssued          36048089                       # Number of instructions issued
system.switch_cpus.iq.iqSquashedInstsExamined      6694042                       # Number of squashed instructions iterated over during squash; mainly for profiling
system.switch_cpus.iq.iqSquashedInstsIssued       151639                       # Number of squashed instructions issued
system.switch_cpus.iq.iqSquashedOperandsExamined     10010938                       # Number of squashed operands that are examined and possibly removed from graph
system.switch_cpus.iq.issued_per_cycle::samples     75122454                       # Number of insts issued each cycle
system.switch_cpus.iq.issued_per_cycle::mean     0.479858                       # Number of insts issued each cycle
system.switch_cpus.iq.issued_per_cycle::stdev     1.325567                       # Number of insts issued each cycle
system.switch_cpus.iq.issued_per_cycle::underflows            0      0.00%      0.00% # Number of insts issued each cycle
system.switch_cpus.iq.issued_per_cycle::0     63200033     84.13%     84.13% # Number of insts issued each cycle
system.switch_cpus.iq.issued_per_cycle::1      3744902      4.99%     89.11% # Number of insts issued each cycle
system.switch_cpus.iq.issued_per_cycle::2      1776504      2.36%     91.48% # Number of insts issued each cycle
system.switch_cpus.iq.issued_per_cycle::3      1358725      1.81%     93.29% # Number of insts issued each cycle
system.switch_cpus.iq.issued_per_cycle::4      2372695      3.16%     96.45% # Number of insts issued each cycle
system.switch_cpus.iq.issued_per_cycle::5      1350639      1.80%     98.24% # Number of insts issued each cycle
system.switch_cpus.iq.issued_per_cycle::6       950158      1.26%     99.51% # Number of insts issued each cycle
system.switch_cpus.iq.issued_per_cycle::7       221303      0.29%     99.80% # Number of insts issued each cycle
system.switch_cpus.iq.issued_per_cycle::8       147495      0.20%    100.00% # Number of insts issued each cycle
system.switch_cpus.iq.issued_per_cycle::overflows            0      0.00%    100.00% # Number of insts issued each cycle
system.switch_cpus.iq.issued_per_cycle::min_value            0                       # Number of insts issued each cycle
system.switch_cpus.iq.issued_per_cycle::max_value            8                       # Number of insts issued each cycle
system.switch_cpus.iq.issued_per_cycle::total     75122454                       # Number of insts issued each cycle
system.switch_cpus.iq.rate                   0.479834                       # Inst issue rate
system.switch_cpus.iq.vec_alu_accesses              0                       # Number of vector alu accesses
system.switch_cpus.iq.vec_inst_queue_reads            0                       # Number of vector instruction queue reads
system.switch_cpus.iq.vec_inst_queue_wakeup_accesses            0                       # Number of vector instruction queue wakeup accesses
system.switch_cpus.iq.vec_inst_queue_writes            0                       # Number of vector instruction queue writes
system.switch_cpus.itb.rdAccesses                   0                       # TLB accesses on read requests
system.switch_cpus.itb.rdMisses                     0                       # TLB misses on read requests
system.switch_cpus.itb.wrAccesses              890651                       # TLB accesses on write requests
system.switch_cpus.itb.wrMisses                    53                       # TLB misses on write requests
system.switch_cpus.memDep0.conflictingLoads       203552                       # Number of conflicting loads.
system.switch_cpus.memDep0.conflictingStores       171880                       # Number of conflicting stores.
system.switch_cpus.memDep0.insertedLoads      5130423                       # Number of loads inserted to the mem dependence unit.
system.switch_cpus.memDep0.insertedStores       592789                       # Number of stores inserted to the mem dependence unit.
system.switch_cpus.misc_regfile_reads        25650535                       # number of misc regfile reads
system.switch_cpus.misc_regfile_writes              1                       # number of misc regfile writes
system.switch_cpus.numCycles                 75126094                       # number of cpu cycles simulated
system.switch_cpus.numWorkItemsCompleted            0                       # number of work items this cpu completed
system.switch_cpus.numWorkItemsStarted              0                       # number of work items this cpu started
system.switch_cpus.rename.BlockCycles        40011409                       # Number of cycles rename is blocking
system.switch_cpus.rename.CommittedMaps      22614526                       # Number of HB maps that are committed
system.switch_cpus.rename.IQFullEvents       11209324                       # Number of times rename has blocked due to IQ full
system.switch_cpus.rename.IdleCycles          1810059                       # Number of cycles rename is idle
system.switch_cpus.rename.LQFullEvents       27321723                       # Number of times rename has blocked due to LQ full
system.switch_cpus.rename.ROBFullEvents        137281                       # Number of times rename has blocked due to ROB full
system.switch_cpus.rename.RenameLookups      67997026                       # Number of register rename lookups that rename has made
system.switch_cpus.rename.RenamedInsts       25673742                       # Number of instructions processed by rename
system.switch_cpus.rename.RenamedOperands     32295876                       # Number of destination operands rename has renamed
system.switch_cpus.rename.RunCycles           2797758                       # Number of cycles rename is running
system.switch_cpus.rename.SQFullEvents          62811                       # Number of times rename has blocked due to SQ full
system.switch_cpus.rename.SquashCycles         173870                       # Number of cycles rename is squashing
system.switch_cpus.rename.UnblockCycles      30327565                       # Number of cycles rename is unblocking
system.switch_cpus.rename.UndoneMaps          9681194                       # Number of HB maps that are undone due to squashing
system.switch_cpus.rename.int_rename_lookups     34760988                       # Number of integer rename lookups
system.switch_cpus.rename.serializeStallCycles         1786                       # count of cycles rename stalled for serializing inst
system.switch_cpus.rename.serializingInsts         1984                       # count of serializing insts renamed
system.switch_cpus.rename.skidInsts           9805619                       # count of insts added to the skid buffer
system.switch_cpus.rename.tempSerializingInsts         1974                       # count of temporary serializing insts renamed
system.switch_cpus.rob.rob_reads             97030364                       # The number of ROB reads
system.switch_cpus.rob.rob_writes            49577165                       # The number of ROB writes
system.switch_cpus.timesIdled                      45                       # Number of times that the entire CPU went into an idle state and unscheduled itself
system.tol2bus.snoop_filter.hit_multi_requests            0                       # Number of requests hitting in the snoop filter with multiple (>1) holders of the requested data.
system.tol2bus.snoop_filter.hit_multi_snoops            0                       # Number of snoops hitting in the snoop filter with multiple (>1) holders of the requested data.
system.tol2bus.snoop_filter.hit_single_requests      1417109                       # Number of requests hitting in the snoop filter with a single holder of the requested data.
system.tol2bus.snoop_filter.hit_single_snoops       415311                       # Number of snoops hitting in the snoop filter with a single holder of the requested data.
system.tol2bus.snoop_filter.tot_requests      2835308                       # Total number of requests made to the snoop filter.
system.tol2bus.snoop_filter.tot_snoops         415311                       # Total number of snoops made to the snoop filter.
system.membus.pwrStateResidencyTicks::UNDEFINED 190188097327000                       # Cumulative time (in ticks) in various power states
system.membus.trans_dist::ReadResp            1207675                       # Transaction distribution
system.membus.trans_dist::WritebackDirty        52459                       # Transaction distribution
system.membus.trans_dist::CleanEvict          1157639                       # Transaction distribution
system.membus.trans_dist::ReadExReq              4585                       # Transaction distribution
system.membus.trans_dist::ReadExResp             4585                       # Transaction distribution
system.membus.trans_dist::ReadSharedReq       1207677                       # Transaction distribution
system.membus.pkt_count_system.l2.mem_side::system.mem_ctrls.port      3634620                       # Packet count per connected master and slave (bytes)
system.membus.pkt_count_system.l2.mem_side::total      3634620                       # Packet count per connected master and slave (bytes)
system.membus.pkt_count::total                3634620                       # Packet count per connected master and slave (bytes)
system.membus.pkt_size_system.l2.mem_side::system.mem_ctrls.port     80942016                       # Cumulative packet size per connected master and slave (bytes)
system.membus.pkt_size_system.l2.mem_side::total     80942016                       # Cumulative packet size per connected master and slave (bytes)
system.membus.pkt_size::total                80942016                       # Cumulative packet size per connected master and slave (bytes)
system.membus.snoops                                0                       # Total snoops (count)
system.membus.snoopTraffic                          0                       # Total snoop traffic (bytes)
system.membus.snoop_fanout::samples           1212262                       # Request fanout histogram
system.membus.snoop_fanout::mean                    0                       # Request fanout histogram
system.membus.snoop_fanout::stdev                   0                       # Request fanout histogram
system.membus.snoop_fanout::underflows              0      0.00%      0.00% # Request fanout histogram
system.membus.snoop_fanout::0                 1212262    100.00%    100.00% # Request fanout histogram
system.membus.snoop_fanout::1                       0      0.00%    100.00% # Request fanout histogram
system.membus.snoop_fanout::overflows               0      0.00%    100.00% # Request fanout histogram
system.membus.snoop_fanout::min_value               0                       # Request fanout histogram
system.membus.snoop_fanout::max_value               0                       # Request fanout histogram
system.membus.snoop_fanout::total             1212262                       # Request fanout histogram
system.membus.reqLayer2.occupancy          2762442000                       # Layer occupancy (ticks)
system.membus.reqLayer2.utilization               7.4                       # Layer utilization (%)
system.membus.respLayer1.occupancy         6774925750                       # Layer occupancy (ticks)
system.membus.respLayer1.utilization             18.0                       # Layer utilization (%)
system.switch_cpus.pwrStateResidencyTicks::OFF  37563058250                       # Cumulative time (in ticks) in various power states
system.switch_cpus.dtb.walker.pwrStateResidencyTicks::UNDEFINED 190188097327000                       # Cumulative time (in ticks) in various power states
system.switch_cpus.itb.walker.pwrStateResidencyTicks::UNDEFINED 190188097327000                       # Cumulative time (in ticks) in various power states
system.tol2bus.pwrStateResidencyTicks::UNDEFINED 190188097327000                       # Cumulative time (in ticks) in various power states
system.tol2bus.trans_dist::ReadResp           1410230                       # Transaction distribution
system.tol2bus.trans_dist::WritebackDirty       132649                       # Transaction distribution
system.tol2bus.trans_dist::CleanEvict         2533202                       # Transaction distribution
system.tol2bus.trans_dist::ReadExReq             7965                       # Transaction distribution
system.tol2bus.trans_dist::ReadExResp            7965                       # Transaction distribution
system.tol2bus.trans_dist::ReadCleanReq            62                       # Transaction distribution
system.tol2bus.trans_dist::ReadSharedReq      1410172                       # Transaction distribution
system.tol2bus.pkt_count_system.cpu.icache.mem_side::system.l2.cpu_side          124                       # Packet count per connected master and slave (bytes)
system.tol2bus.pkt_count_system.cpu.dcache.mem_side::system.l2.cpu_side      4253379                       # Packet count per connected master and slave (bytes)
system.tol2bus.pkt_count::total               4253503                       # Packet count per connected master and slave (bytes)
system.tol2bus.pkt_size_system.cpu.icache.mem_side::system.l2.cpu_side         3968                       # Cumulative packet size per connected master and slave (bytes)
system.tol2bus.pkt_size_system.cpu.dcache.mem_side::system.l2.cpu_side     95892672                       # Cumulative packet size per connected master and slave (bytes)
system.tol2bus.pkt_size::total               95896640                       # Cumulative packet size per connected master and slave (bytes)
system.tol2bus.snoops                         1248742                       # Total snoops (count)
system.tol2bus.snoopTraffic                   3357376                       # Total snoop traffic (bytes)
system.tol2bus.snoop_fanout::samples          2666941                       # Request fanout histogram
system.tol2bus.snoop_fanout::mean            0.155726                       # Request fanout histogram
system.tol2bus.snoop_fanout::stdev           0.362595                       # Request fanout histogram
system.tol2bus.snoop_fanout::underflows             0      0.00%      0.00% # Request fanout histogram
system.tol2bus.snoop_fanout::0                2251630     84.43%     84.43% # Request fanout histogram
system.tol2bus.snoop_fanout::1                 415311     15.57%    100.00% # Request fanout histogram
system.tol2bus.snoop_fanout::2                      0      0.00%    100.00% # Request fanout histogram
system.tol2bus.snoop_fanout::3                      0      0.00%    100.00% # Request fanout histogram
system.tol2bus.snoop_fanout::4                      0      0.00%    100.00% # Request fanout histogram
system.tol2bus.snoop_fanout::overflows              0      0.00%    100.00% # Request fanout histogram
system.tol2bus.snoop_fanout::min_value              0                       # Request fanout histogram
system.tol2bus.snoop_fanout::max_value              1                       # Request fanout histogram
system.tol2bus.snoop_fanout::total            2666941                       # Request fanout histogram
system.tol2bus.reqLayer0.occupancy         1497842500                       # Layer occupancy (ticks)
system.tol2bus.reqLayer0.utilization              4.0                       # Layer utilization (%)
system.tol2bus.respLayer1.occupancy        2127196500                       # Layer occupancy (ticks)
system.tol2bus.respLayer1.utilization             5.7                       # Layer utilization (%)
system.tol2bus.respLayer0.occupancy             91500                       # Layer occupancy (ticks)
system.tol2bus.respLayer0.utilization             0.0                       # Layer utilization (%)
system.voltage_domain.voltage                       1                       # Voltage in Volts
system.clk_domain.clock                          1000                       # Clock period in ticks
system.l2.pwrStateResidencyTicks::UNDEFINED 190188097327000                       # Cumulative time (in ticks) in various power states
system.l2.demand_hits::.switch_cpus.data       205936                       # number of demand (read+write) hits
system.l2.demand_hits::total                   205936                       # number of demand (read+write) hits
system.l2.overall_hits::.switch_cpus.data       205936                       # number of overall hits
system.l2.overall_hits::total                  205936                       # number of overall hits
system.l2.demand_misses::.cpu.inst                  1                       # number of demand (read+write) misses
system.l2.demand_misses::.cpu.data                  2                       # number of demand (read+write) misses
system.l2.demand_misses::.switch_cpus.inst           61                       # number of demand (read+write) misses
system.l2.demand_misses::.switch_cpus.data      1212199                       # number of demand (read+write) misses
system.l2.demand_misses::total                1212263                       # number of demand (read+write) misses
system.l2.overall_misses::.cpu.inst                 1                       # number of overall misses
system.l2.overall_misses::.cpu.data                 2                       # number of overall misses
system.l2.overall_misses::.switch_cpus.inst           61                       # number of overall misses
system.l2.overall_misses::.switch_cpus.data      1212199                       # number of overall misses
system.l2.overall_misses::total               1212263                       # number of overall misses
system.l2.demand_miss_latency::.switch_cpus.inst      5013000                       # number of demand (read+write) miss cycles
system.l2.demand_miss_latency::.switch_cpus.data 122624488000                       # number of demand (read+write) miss cycles
system.l2.demand_miss_latency::total     122629501000                       # number of demand (read+write) miss cycles
system.l2.overall_miss_latency::.switch_cpus.inst      5013000                       # number of overall miss cycles
system.l2.overall_miss_latency::.switch_cpus.data 122624488000                       # number of overall miss cycles
system.l2.overall_miss_latency::total    122629501000                       # number of overall miss cycles
system.l2.demand_accesses::.cpu.inst                1                       # number of demand (read+write) accesses
system.l2.demand_accesses::.cpu.data                2                       # number of demand (read+write) accesses
system.l2.demand_accesses::.switch_cpus.inst           61                       # number of demand (read+write) accesses
system.l2.demand_accesses::.switch_cpus.data      1418135                       # number of demand (read+write) accesses
system.l2.demand_accesses::total              1418199                       # number of demand (read+write) accesses
system.l2.overall_accesses::.cpu.inst               1                       # number of overall (read+write) accesses
system.l2.overall_accesses::.cpu.data               2                       # number of overall (read+write) accesses
system.l2.overall_accesses::.switch_cpus.inst           61                       # number of overall (read+write) accesses
system.l2.overall_accesses::.switch_cpus.data      1418135                       # number of overall (read+write) accesses
system.l2.overall_accesses::total             1418199                       # number of overall (read+write) accesses
system.l2.demand_miss_rate::.cpu.inst               1                       # miss rate for demand accesses
system.l2.demand_miss_rate::.cpu.data               1                       # miss rate for demand accesses
system.l2.demand_miss_rate::.switch_cpus.inst            1                       # miss rate for demand accesses
system.l2.demand_miss_rate::.switch_cpus.data     0.854784                       # miss rate for demand accesses
system.l2.demand_miss_rate::total            0.854790                       # miss rate for demand accesses
system.l2.overall_miss_rate::.cpu.inst              1                       # miss rate for overall accesses
system.l2.overall_miss_rate::.cpu.data              1                       # miss rate for overall accesses
system.l2.overall_miss_rate::.switch_cpus.inst            1                       # miss rate for overall accesses
system.l2.overall_miss_rate::.switch_cpus.data     0.854784                       # miss rate for overall accesses
system.l2.overall_miss_rate::total           0.854790                       # miss rate for overall accesses
system.l2.demand_avg_miss_latency::.switch_cpus.inst 82180.327869                       # average overall miss latency
system.l2.demand_avg_miss_latency::.switch_cpus.data 101158.710740                       # average overall miss latency
system.l2.demand_avg_miss_latency::total 101157.505426                       # average overall miss latency
system.l2.overall_avg_miss_latency::.switch_cpus.inst 82180.327869                       # average overall miss latency
system.l2.overall_avg_miss_latency::.switch_cpus.data 101158.710740                       # average overall miss latency
system.l2.overall_avg_miss_latency::total 101157.505426                       # average overall miss latency
system.l2.blocked_cycles::no_mshrs                  0                       # number of cycles access was blocked
system.l2.blocked_cycles::no_targets                0                       # number of cycles access was blocked
system.l2.blocked::no_mshrs                         0                       # number of cycles access was blocked
system.l2.blocked::no_targets                       0                       # number of cycles access was blocked
system.l2.avg_blocked_cycles::no_mshrs            nan                       # average number of cycles each access was blocked
system.l2.avg_blocked_cycles::no_targets          nan                       # average number of cycles each access was blocked
system.l2.writebacks::.writebacks               52459                       # number of writebacks
system.l2.writebacks::total                     52459                       # number of writebacks
system.l2.demand_mshr_misses::.switch_cpus.inst           61                       # number of demand (read+write) MSHR misses
system.l2.demand_mshr_misses::.switch_cpus.data      1212199                       # number of demand (read+write) MSHR misses
system.l2.demand_mshr_misses::total           1212260                       # number of demand (read+write) MSHR misses
system.l2.overall_mshr_misses::.switch_cpus.inst           61                       # number of overall MSHR misses
system.l2.overall_mshr_misses::.switch_cpus.data      1212199                       # number of overall MSHR misses
system.l2.overall_mshr_misses::total          1212260                       # number of overall MSHR misses
system.l2.demand_mshr_miss_latency::.switch_cpus.inst      4403000                       # number of demand (read+write) MSHR miss cycles
system.l2.demand_mshr_miss_latency::.switch_cpus.data 110502528000                       # number of demand (read+write) MSHR miss cycles
system.l2.demand_mshr_miss_latency::total 110506931000                       # number of demand (read+write) MSHR miss cycles
system.l2.overall_mshr_miss_latency::.switch_cpus.inst      4403000                       # number of overall MSHR miss cycles
system.l2.overall_mshr_miss_latency::.switch_cpus.data 110502528000                       # number of overall MSHR miss cycles
system.l2.overall_mshr_miss_latency::total 110506931000                       # number of overall MSHR miss cycles
system.l2.demand_mshr_miss_rate::.switch_cpus.inst            1                       # mshr miss rate for demand accesses
system.l2.demand_mshr_miss_rate::.switch_cpus.data     0.854784                       # mshr miss rate for demand accesses
system.l2.demand_mshr_miss_rate::total       0.854788                       # mshr miss rate for demand accesses
system.l2.overall_mshr_miss_rate::.switch_cpus.inst            1                       # mshr miss rate for overall accesses
system.l2.overall_mshr_miss_rate::.switch_cpus.data     0.854784                       # mshr miss rate for overall accesses
system.l2.overall_mshr_miss_rate::total      0.854788                       # mshr miss rate for overall accesses
system.l2.demand_avg_mshr_miss_latency::.switch_cpus.inst 72180.327869                       # average overall mshr miss latency
system.l2.demand_avg_mshr_miss_latency::.switch_cpus.data 91158.735488                       # average overall mshr miss latency
system.l2.demand_avg_mshr_miss_latency::total 91157.780509                       # average overall mshr miss latency
system.l2.overall_avg_mshr_miss_latency::.switch_cpus.inst 72180.327869                       # average overall mshr miss latency
system.l2.overall_avg_mshr_miss_latency::.switch_cpus.data 91158.735488                       # average overall mshr miss latency
system.l2.overall_avg_mshr_miss_latency::total 91157.780509                       # average overall mshr miss latency
system.l2.replacements                        1248742                       # number of replacements
system.l2.WritebackDirty_hits::.writebacks        80190                       # number of WritebackDirty hits
system.l2.WritebackDirty_hits::total            80190                       # number of WritebackDirty hits
system.l2.WritebackDirty_accesses::.writebacks        80190                       # number of WritebackDirty accesses(hits+misses)
system.l2.WritebackDirty_accesses::total        80190                       # number of WritebackDirty accesses(hits+misses)
system.l2.CleanEvict_mshr_misses::.writebacks       376668                       # number of CleanEvict MSHR misses
system.l2.CleanEvict_mshr_misses::total        376668                       # number of CleanEvict MSHR misses
system.l2.CleanEvict_mshr_miss_rate::.writebacks          inf                       # mshr miss rate for CleanEvict accesses
system.l2.CleanEvict_mshr_miss_rate::total          inf                       # mshr miss rate for CleanEvict accesses
system.l2.ReadExReq_hits::.switch_cpus.data         3380                       # number of ReadExReq hits
system.l2.ReadExReq_hits::total                  3380                       # number of ReadExReq hits
system.l2.ReadExReq_misses::.switch_cpus.data         4585                       # number of ReadExReq misses
system.l2.ReadExReq_misses::total                4585                       # number of ReadExReq misses
system.l2.ReadExReq_miss_latency::.switch_cpus.data    389297000                       # number of ReadExReq miss cycles
system.l2.ReadExReq_miss_latency::total     389297000                       # number of ReadExReq miss cycles
system.l2.ReadExReq_accesses::.switch_cpus.data         7965                       # number of ReadExReq accesses(hits+misses)
system.l2.ReadExReq_accesses::total              7965                       # number of ReadExReq accesses(hits+misses)
system.l2.ReadExReq_miss_rate::.switch_cpus.data     0.575643                       # miss rate for ReadExReq accesses
system.l2.ReadExReq_miss_rate::total         0.575643                       # miss rate for ReadExReq accesses
system.l2.ReadExReq_avg_miss_latency::.switch_cpus.data 84906.652126                       # average ReadExReq miss latency
system.l2.ReadExReq_avg_miss_latency::total 84906.652126                       # average ReadExReq miss latency
system.l2.ReadExReq_mshr_misses::.switch_cpus.data         4585                       # number of ReadExReq MSHR misses
system.l2.ReadExReq_mshr_misses::total           4585                       # number of ReadExReq MSHR misses
system.l2.ReadExReq_mshr_miss_latency::.switch_cpus.data    343447000                       # number of ReadExReq MSHR miss cycles
system.l2.ReadExReq_mshr_miss_latency::total    343447000                       # number of ReadExReq MSHR miss cycles
system.l2.ReadExReq_mshr_miss_rate::.switch_cpus.data     0.575643                       # mshr miss rate for ReadExReq accesses
system.l2.ReadExReq_mshr_miss_rate::total     0.575643                       # mshr miss rate for ReadExReq accesses
system.l2.ReadExReq_avg_mshr_miss_latency::.switch_cpus.data 74906.652126                       # average ReadExReq mshr miss latency
system.l2.ReadExReq_avg_mshr_miss_latency::total 74906.652126                       # average ReadExReq mshr miss latency
system.l2.ReadCleanReq_misses::.cpu.inst            1                       # number of ReadCleanReq misses
system.l2.ReadCleanReq_misses::.switch_cpus.inst           61                       # number of ReadCleanReq misses
system.l2.ReadCleanReq_misses::total               62                       # number of ReadCleanReq misses
system.l2.ReadCleanReq_miss_latency::.switch_cpus.inst      5013000                       # number of ReadCleanReq miss cycles
system.l2.ReadCleanReq_miss_latency::total      5013000                       # number of ReadCleanReq miss cycles
system.l2.ReadCleanReq_accesses::.cpu.inst            1                       # number of ReadCleanReq accesses(hits+misses)
system.l2.ReadCleanReq_accesses::.switch_cpus.inst           61                       # number of ReadCleanReq accesses(hits+misses)
system.l2.ReadCleanReq_accesses::total             62                       # number of ReadCleanReq accesses(hits+misses)
system.l2.ReadCleanReq_miss_rate::.cpu.inst            1                       # miss rate for ReadCleanReq accesses
system.l2.ReadCleanReq_miss_rate::.switch_cpus.inst            1                       # miss rate for ReadCleanReq accesses
system.l2.ReadCleanReq_miss_rate::total             1                       # miss rate for ReadCleanReq accesses
system.l2.ReadCleanReq_avg_miss_latency::.switch_cpus.inst 82180.327869                       # average ReadCleanReq miss latency
system.l2.ReadCleanReq_avg_miss_latency::total 80854.838710                       # average ReadCleanReq miss latency
system.l2.ReadCleanReq_mshr_misses::.switch_cpus.inst           61                       # number of ReadCleanReq MSHR misses
system.l2.ReadCleanReq_mshr_misses::total           61                       # number of ReadCleanReq MSHR misses
system.l2.ReadCleanReq_mshr_miss_latency::.switch_cpus.inst      4403000                       # number of ReadCleanReq MSHR miss cycles
system.l2.ReadCleanReq_mshr_miss_latency::total      4403000                       # number of ReadCleanReq MSHR miss cycles
system.l2.ReadCleanReq_mshr_miss_rate::.switch_cpus.inst            1                       # mshr miss rate for ReadCleanReq accesses
system.l2.ReadCleanReq_mshr_miss_rate::total     0.983871                       # mshr miss rate for ReadCleanReq accesses
system.l2.ReadCleanReq_avg_mshr_miss_latency::.switch_cpus.inst 72180.327869                       # average ReadCleanReq mshr miss latency
system.l2.ReadCleanReq_avg_mshr_miss_latency::total 72180.327869                       # average ReadCleanReq mshr miss latency
system.l2.ReadSharedReq_hits::.switch_cpus.data       202556                       # number of ReadSharedReq hits
system.l2.ReadSharedReq_hits::total            202556                       # number of ReadSharedReq hits
system.l2.ReadSharedReq_misses::.cpu.data            2                       # number of ReadSharedReq misses
[...]
system.cpu.icache.tags.age_task_id_blocks_1024::4           62                       # Occupied blocks per task id
system.cpu.icache.tags.occ_task_id_percent::1024     0.121094                       # Percentage of cache occupancy per task id
system.cpu.icache.tags.tag_accesses           2744468                       # Number of tag accesses
system.cpu.icache.tags.data_accesses          2744468                       # Number of data accesses
system.cpu.dtb.walker.pwrStateResidencyTicks::UNDEFINED 190308936385000                       # Cumulative time (in ticks) in various power states
system.cpu.interrupts.clk_domain.clock           8000                       # Clock period in ticks
system.cpu.itb_walker_cache.pwrStateResidencyTicks::UNDEFINED 190308936385000                       # Cumulative time (in ticks) in various power states
system.cpu.itb_walker_cache.blocked_cycles::no_mshrs            0                       # number of cycles access was blocked
system.cpu.itb_walker_cache.blocked_cycles::no_targets            0                       # number of cycles access was blocked
system.cpu.itb_walker_cache.blocked::no_mshrs            0                       # number of cycles access was blocked
system.cpu.itb_walker_cache.blocked::no_targets            0                       # number of cycles access was blocked
system.cpu.itb_walker_cache.avg_blocked_cycles::no_mshrs          nan                       # average number of cycles each access was blocked
system.cpu.itb_walker_cache.avg_blocked_cycles::no_targets          nan                       # average number of cycles each access was blocked
system.cpu.itb_walker_cache.replacements            0                       # number of replacements
system.cpu.itb_walker_cache.tags.pwrStateResidencyTicks::UNDEFINED 190308936385000                       # Cumulative time (in ticks) in various power states
system.cpu.itb_walker_cache.tags.tagsinuse            0                       # Cycle average of tags in use
system.cpu.itb_walker_cache.tags.total_refs            0                       # Total number of references to valid blocks.
system.cpu.itb_walker_cache.tags.sampled_refs            0                       # Sample count of references to valid blocks.
system.cpu.itb_walker_cache.tags.avg_refs          nan                       # Average number of references to valid blocks.
system.cpu.itb_walker_cache.tags.warmup_cycle            0                       # Cycle when the warmup percentage was hit.
system.cpu.itb_walker_cache.tags.tag_accesses            0                       # Number of tag accesses
system.cpu.itb_walker_cache.tags.data_accesses            0                       # Number of data accesses
system.cpu.itb.walker.pwrStateResidencyTicks::UNDEFINED 190308936385000                       # Cumulative time (in ticks) in various power states
system.cpu.dtb_walker_cache.pwrStateResidencyTicks::UNDEFINED 190308936385000                       # Cumulative time (in ticks) in various power states
system.cpu.dtb_walker_cache.blocked_cycles::no_mshrs            0                       # number of cycles access was blocked
system.cpu.dtb_walker_cache.blocked_cycles::no_targets            0                       # number of cycles access was blocked
system.cpu.dtb_walker_cache.blocked::no_mshrs            0                       # number of cycles access was blocked
system.cpu.dtb_walker_cache.blocked::no_targets            0                       # number of cycles access was blocked
system.cpu.dtb_walker_cache.avg_blocked_cycles::no_mshrs          nan                       # average number of cycles each access was blocked
system.cpu.dtb_walker_cache.avg_blocked_cycles::no_targets          nan                       # average number of cycles each access was blocked
system.cpu.dtb_walker_cache.replacements            0                       # number of replacements
system.cpu.dtb_walker_cache.tags.pwrStateResidencyTicks::UNDEFINED 190308936385000                       # Cumulative time (in ticks) in various power states
system.cpu.dtb_walker_cache.tags.tagsinuse            0                       # Cycle average of tags in use
system.cpu.dtb_walker_cache.tags.total_refs            0                       # Total number of references to valid blocks.
system.cpu.dtb_walker_cache.tags.sampled_refs            0                       # Sample count of references to valid blocks.
system.cpu.dtb_walker_cache.tags.avg_refs          nan                       # Average number of references to valid blocks.
system.cpu.dtb_walker_cache.tags.warmup_cycle            0                       # Cycle when the warmup percentage was hit.
system.cpu.dtb_walker_cache.tags.tag_accesses            0                       # Number of tag accesses
system.cpu.dtb_walker_cache.tags.data_accesses            0                       # Number of data accesses
system.cpu.dcache.pwrStateResidencyTicks::UNDEFINED 190308936385000                       # Cumulative time (in ticks) in various power states
system.cpu.dcache.demand_hits::.switch_cpus.data      4988979                       # number of demand (read+write) hits
system.cpu.dcache.demand_hits::total          4988979                       # number of demand (read+write) hits
system.cpu.dcache.overall_hits::.switch_cpus.data      4988979                       # number of overall hits
system.cpu.dcache.overall_hits::total         4988979                       # number of overall hits
system.cpu.dcache.demand_misses::.cpu.data            2                       # number of demand (read+write) misses
system.cpu.dcache.demand_misses::.switch_cpus.data     12854750                       # number of demand (read+write) misses
system.cpu.dcache.demand_misses::total       12854752                       # number of demand (read+write) misses
system.cpu.dcache.overall_misses::.cpu.data            2                       # number of overall misses
system.cpu.dcache.overall_misses::.switch_cpus.data     12854750                       # number of overall misses
system.cpu.dcache.overall_misses::total      12854752                       # number of overall misses
system.cpu.dcache.demand_miss_latency::.switch_cpus.data 1000760506857                       # number of demand (read+write) miss cycles
system.cpu.dcache.demand_miss_latency::total 1000760506857                       # number of demand (read+write) miss cycles
system.cpu.dcache.overall_miss_latency::.switch_cpus.data 1000760506857                       # number of overall miss cycles
system.cpu.dcache.overall_miss_latency::total 1000760506857                       # number of overall miss cycles
system.cpu.dcache.demand_accesses::.cpu.data            2                       # number of demand (read+write) accesses
system.cpu.dcache.demand_accesses::.switch_cpus.data     17843729                       # number of demand (read+write) accesses
system.cpu.dcache.demand_accesses::total     17843731                       # number of demand (read+write) accesses
system.cpu.dcache.overall_accesses::.cpu.data            2                       # number of overall (read+write) accesses
system.cpu.dcache.overall_accesses::.switch_cpus.data     17843729                       # number of overall (read+write) accesses
system.cpu.dcache.overall_accesses::total     17843731                       # number of overall (read+write) accesses
system.cpu.dcache.demand_miss_rate::.cpu.data            1                       # miss rate for demand accesses
system.cpu.dcache.demand_miss_rate::.switch_cpus.data     0.720407                       # miss rate for demand accesses
system.cpu.dcache.demand_miss_rate::total     0.720407                       # miss rate for demand accesses
system.cpu.dcache.overall_miss_rate::.cpu.data            1                       # miss rate for overall accesses
system.cpu.dcache.overall_miss_rate::.switch_cpus.data     0.720407                       # miss rate for overall accesses
system.cpu.dcache.overall_miss_rate::total     0.720407                       # miss rate for overall accesses
system.cpu.dcache.demand_avg_miss_latency::.switch_cpus.data 77851.417325                       # average overall miss latency
system.cpu.dcache.demand_avg_miss_latency::total 77851.405212                       # average overall miss latency
system.cpu.dcache.overall_avg_miss_latency::.switch_cpus.data 77851.417325                       # average overall miss latency
system.cpu.dcache.overall_avg_miss_latency::total 77851.405212                       # average overall miss latency
system.cpu.dcache.blocked_cycles::no_mshrs    278468799                       # number of cycles access was blocked
system.cpu.dcache.blocked_cycles::no_targets           16                       # number of cycles access was blocked
system.cpu.dcache.blocked::no_mshrs           6328103                       # number of cycles access was blocked
system.cpu.dcache.blocked::no_targets               1                       # number of cycles access was blocked
system.cpu.dcache.avg_blocked_cycles::no_mshrs    44.005099                       # average number of cycles each access was blocked
system.cpu.dcache.avg_blocked_cycles::no_targets           16                       # average number of cycles each access was blocked
system.cpu.dcache.writebacks::.writebacks       122588                       # number of writebacks
system.cpu.dcache.writebacks::total            122588                       # number of writebacks
system.cpu.dcache.demand_mshr_hits::.switch_cpus.data      6282822                       # number of demand (read+write) MSHR hits
system.cpu.dcache.demand_mshr_hits::total      6282822                       # number of demand (read+write) MSHR hits
system.cpu.dcache.overall_mshr_hits::.switch_cpus.data      6282822                       # number of overall MSHR hits
system.cpu.dcache.overall_mshr_hits::total      6282822                       # number of overall MSHR hits
system.cpu.dcache.demand_mshr_misses::.switch_cpus.data      6571928                       # number of demand (read+write) MSHR misses
system.cpu.dcache.demand_mshr_misses::total      6571928                       # number of demand (read+write) MSHR misses
system.cpu.dcache.overall_mshr_misses::.switch_cpus.data      6571928                       # number of overall MSHR misses
system.cpu.dcache.overall_mshr_misses::total      6571928                       # number of overall MSHR misses
system.cpu.dcache.demand_mshr_miss_latency::.switch_cpus.data 594092780440                       # number of demand (read+write) MSHR miss cycles
system.cpu.dcache.demand_mshr_miss_latency::total 594092780440                       # number of demand (read+write) MSHR miss cycles
system.cpu.dcache.overall_mshr_miss_latency::.switch_cpus.data 594092780440                       # number of overall MSHR miss cycles
system.cpu.dcache.overall_mshr_miss_latency::total 594092780440                       # number of overall MSHR miss cycles
system.cpu.dcache.demand_mshr_miss_rate::.switch_cpus.data     0.368305                       # mshr miss rate for demand accesses
system.cpu.dcache.demand_mshr_miss_rate::total     0.368305                       # mshr miss rate for demand accesses
system.cpu.dcache.overall_mshr_miss_rate::.switch_cpus.data     0.368305                       # mshr miss rate for overall accesses
system.cpu.dcache.overall_mshr_miss_rate::total     0.368305                       # mshr miss rate for overall accesses
system.cpu.dcache.demand_avg_mshr_miss_latency::.switch_cpus.data 90398.552820                       # average overall mshr miss latency
system.cpu.dcache.demand_avg_mshr_miss_latency::total 90398.552820                       # average overall mshr miss latency
system.cpu.dcache.overall_avg_mshr_miss_latency::.switch_cpus.data 90398.552820                       # average overall mshr miss latency
system.cpu.dcache.overall_avg_mshr_miss_latency::total 90398.552820                       # average overall mshr miss latency
system.cpu.dcache.replacements                6570902                       # number of replacements
system.cpu.dcache.ReadReq_hits::.switch_cpus.data      4593005                       # number of ReadReq hits
system.cpu.dcache.ReadReq_hits::total         4593005                       # number of ReadReq hits
system.cpu.dcache.ReadReq_misses::.cpu.data            2                       # number of ReadReq misses
system.cpu.dcache.ReadReq_misses::.switch_cpus.data     12843743                       # number of ReadReq misses
system.cpu.dcache.ReadReq_misses::total      12843745                       # number of ReadReq misses
system.cpu.dcache.ReadReq_miss_latency::.switch_cpus.data 1000158828500                       # number of ReadReq miss cycles
system.cpu.dcache.ReadReq_miss_latency::total 1000158828500                       # number of ReadReq miss cycles
system.cpu.dcache.ReadReq_accesses::.cpu.data            2                       # number of ReadReq accesses(hits+misses)
system.cpu.dcache.ReadReq_accesses::.switch_cpus.data     17436748                       # number of ReadReq accesses(hits+misses)
system.cpu.dcache.ReadReq_accesses::total     17436750                       # number of ReadReq accesses(hits+misses)
system.cpu.dcache.ReadReq_miss_rate::.cpu.data            1                       # miss rate for ReadReq accesses
system.cpu.dcache.ReadReq_miss_rate::.switch_cpus.data     0.736591                       # miss rate for ReadReq accesses
system.cpu.dcache.ReadReq_miss_rate::total     0.736591                       # miss rate for ReadReq accesses
system.cpu.dcache.ReadReq_avg_miss_latency::.switch_cpus.data 77871.289429                       # average ReadReq miss latency
system.cpu.dcache.ReadReq_avg_miss_latency::total 77871.277303                       # average ReadReq miss latency
system.cpu.dcache.ReadReq_mshr_hits::.switch_cpus.data      6282555                       # number of ReadReq MSHR hits
system.cpu.dcache.ReadReq_mshr_hits::total      6282555                       # number of ReadReq MSHR hits
system.cpu.dcache.ReadReq_mshr_misses::.switch_cpus.data      6561188                       # number of ReadReq MSHR misses
system.cpu.dcache.ReadReq_mshr_misses::total      6561188                       # number of ReadReq MSHR misses
system.cpu.dcache.ReadReq_mshr_miss_latency::.switch_cpus.data 593507510000                       # number of ReadReq MSHR miss cycles
system.cpu.dcache.ReadReq_mshr_miss_latency::total 593507510000                       # number of ReadReq MSHR miss cycles
system.cpu.dcache.ReadReq_mshr_miss_rate::.switch_cpus.data     0.376285                       # mshr miss rate for ReadReq accesses
system.cpu.dcache.ReadReq_mshr_miss_rate::total     0.376285                       # mshr miss rate for ReadReq accesses
system.cpu.dcache.ReadReq_avg_mshr_miss_latency::.switch_cpus.data 90457.324192                       # average ReadReq mshr miss latency
system.cpu.dcache.ReadReq_avg_mshr_miss_latency::total 90457.324192                       # average ReadReq mshr miss latency
system.cpu.dcache.WriteReq_hits::.switch_cpus.data       395974                       # number of WriteReq hits
system.cpu.dcache.WriteReq_hits::total         395974                       # number of WriteReq hits
system.cpu.dcache.WriteReq_misses::.switch_cpus.data        11007                       # number of WriteReq misses
system.cpu.dcache.WriteReq_misses::total        11007                       # number of WriteReq misses
system.cpu.dcache.WriteReq_miss_latency::.switch_cpus.data    601678357                       # number of WriteReq miss cycles
system.cpu.dcache.WriteReq_miss_latency::total    601678357                       # number of WriteReq miss cycles
system.cpu.dcache.WriteReq_accesses::.switch_cpus.data       406981                       # number of WriteReq accesses(hits+misses)
system.cpu.dcache.WriteReq_accesses::total       406981                       # number of WriteReq accesses(hits+misses)
system.cpu.dcache.WriteReq_miss_rate::.switch_cpus.data     0.027045                       # miss rate for WriteReq accesses
system.cpu.dcache.WriteReq_miss_rate::total     0.027045                       # miss rate for WriteReq accesses
system.cpu.dcache.WriteReq_avg_miss_latency::.switch_cpus.data 54663.246752                       # average WriteReq miss latency
system.cpu.dcache.WriteReq_avg_miss_latency::total 54663.246752                       # average WriteReq miss latency
system.cpu.dcache.WriteReq_mshr_hits::.switch_cpus.data          267                       # number of WriteReq MSHR hits
system.cpu.dcache.WriteReq_mshr_hits::total          267                       # number of WriteReq MSHR hits
system.cpu.dcache.WriteReq_mshr_misses::.switch_cpus.data        10740                       # number of WriteReq MSHR misses
system.cpu.dcache.WriteReq_mshr_misses::total        10740                       # number of WriteReq MSHR misses
system.cpu.dcache.WriteReq_mshr_miss_latency::.switch_cpus.data    585270440                       # number of WriteReq MSHR miss cycles
system.cpu.dcache.WriteReq_mshr_miss_latency::total    585270440                       # number of WriteReq MSHR miss cycles
system.cpu.dcache.WriteReq_mshr_miss_rate::.switch_cpus.data     0.026389                       # mshr miss rate for WriteReq accesses
system.cpu.dcache.WriteReq_mshr_miss_rate::total     0.026389                       # mshr miss rate for WriteReq accesses
system.cpu.dcache.WriteReq_avg_mshr_miss_latency::.switch_cpus.data 54494.454376                       # average WriteReq mshr miss latency
system.cpu.dcache.WriteReq_avg_mshr_miss_latency::total 54494.454376                       # average WriteReq mshr miss latency
system.cpu.dcache.tags.pwrStateResidencyTicks::UNDEFINED 190308936385000                       # Cumulative time (in ticks) in various power states
system.cpu.dcache.tags.tagsinuse             0.852222                       # Cycle average of tags in use
system.cpu.dcache.tags.total_refs            11560905                       # Total number of references to valid blocks.
system.cpu.dcache.tags.sampled_refs           6571926                       # Sample count of references to valid blocks.
system.cpu.dcache.tags.avg_refs              1.759135                       # Average number of references to valid blocks.
system.cpu.dcache.tags.warmup_cycle      190150534270000                       # Cycle when the warmup percentage was hit.
system.cpu.dcache.tags.occ_blocks::.cpu.data     0.000000                       # Average occupied blocks per requestor
system.cpu.dcache.tags.occ_blocks::.switch_cpus.data     0.852222                       # Average occupied blocks per requestor
system.cpu.dcache.tags.occ_percent::.cpu.data     0.000000                       # Average percentage of cache occupancy
system.cpu.dcache.tags.occ_percent::.switch_cpus.data     0.000832                       # Average percentage of cache occupancy
system.cpu.dcache.tags.occ_percent::total     0.000832                       # Average percentage of cache occupancy
system.cpu.dcache.tags.occ_task_id_blocks::1024         1024                       # Occupied blocks per task id
system.cpu.dcache.tags.age_task_id_blocks_1024::0          400                       # Occupied blocks per task id
system.cpu.dcache.tags.age_task_id_blocks_1024::1          619                       # Occupied blocks per task id
system.cpu.dcache.tags.age_task_id_blocks_1024::2            5                       # Occupied blocks per task id
system.cpu.dcache.tags.occ_task_id_percent::1024            1                       # Percentage of cache occupancy per task id
system.cpu.dcache.tags.tag_accesses          42259388                       # Number of tag accesses
system.cpu.dcache.tags.data_accesses         42259388                       # Number of data accesses

---------- End Simulation Statistics   ----------
