
---------- Begin Simulation Statistics ----------
final_tick                               270776441096000                       # Number of ticks from beginning of simulation (restored from checkpoints and never reset)
host_inst_rate                                  63869                       # Simulator instruction rate (inst/s)
host_mem_usage                                 804204                       # Number of bytes of host memory used
host_op_rate                                   106658                       # Simulator op (including micro ops) rate (op/s)
host_seconds                                   156.57                       # Real time elapsed on the host
host_tick_rate                               58510342                       # Simulator tick rate (ticks/s)
sim_freq                                 1000000000000                       # Frequency of simulated ticks
sim_insts                                    10000010                       # Number of instructions simulated
sim_ops                                      16699646                       # Number of ops (including micro ops) simulated
sim_seconds                                  0.009161                       # Number of seconds simulated
sim_ticks                                  9161042250                       # Number of ticks simulated
system.cpu.Branches                                 1                       # Number of branches fetched
system.cpu.committedInsts                           7                       # Number of instructions committed
system.cpu.committedOps                            18                       # Number of ops (including micro ops) committed
system.cpu.dtb.rdAccesses                           5                       # TLB accesses on read requests
system.cpu.dtb.rdMisses                             0                       # TLB misses on read requests
system.cpu.dtb.wrAccesses                           1                       # TLB accesses on write requests
system.cpu.dtb.wrMisses                             0                       # TLB misses on write requests
system.cpu.idle_fraction                            0                       # Percentage of idle cycles
system.cpu.itb.rdAccesses                           0                       # TLB accesses on read requests
system.cpu.itb.rdMisses                             0                       # TLB misses on read requests
system.cpu.itb.wrAccesses                           9                       # TLB accesses on write requests
system.cpu.itb.wrMisses                             0                       # TLB misses on write requests
system.cpu.not_idle_fraction                        1                       # Percentage of non-idle cycles
system.cpu.numCycles                               20                       # number of cpu cycles simulated
system.cpu.numWorkItemsCompleted                    0                       # number of work items this cpu completed
system.cpu.numWorkItemsStarted                      0                       # number of work items this cpu started
system.cpu.num_busy_cycles                         20                       # Number of busy cycles
system.cpu.num_cc_register_writes                   2                       # number of times the CC registers were written
system.cpu.num_conditional_control_insts            0                       # number of instructions that are conditional controls
system.cpu.num_fp_alu_accesses                      0                       # Number of float alu accesses
system.cpu.num_fp_insts                             0                       # number of float instructions
system.cpu.num_fp_register_reads                    0                       # number of times the floating registers were read
system.cpu.num_fp_register_writes                   0                       # number of times the floating registers were written
system.cpu.num_func_calls                           1                       # number of times a function call or return occured
system.cpu.num_idle_cycles                          0                       # Number of idle cycles
system.cpu.num_int_alu_accesses                    18                       # Number of integer alu accesses
system.cpu.num_int_insts                           18                       # number of integer instructions
system.cpu.num_int_register_reads                  40                       # number of times the integer registers were read
system.cpu.num_int_register_writes                 16                       # number of times the integer registers were written
system.cpu.num_load_insts                           5                       # Number of load instructions
system.cpu.num_mem_refs                             6                       # number of memory refs
system.cpu.num_store_insts                          1                       # Number of store instructions
system.cpu.num_vec_alu_accesses                     0                       # Number of vector alu accesses
system.cpu.num_vec_insts                            0                       # number of vector instructions
system.cpu.num_vec_register_reads                   0                       # number of times the vector registers were read
system.cpu.num_vec_register_writes                  0                       # number of times the vector registers were written
system.cpu.op_class::No_OpClass                     0      0.00%      0.00% # Class of executed instruction
system.cpu.op_class::IntAlu                        12     66.67%     66.67% # Class of executed instruction
system.cpu.op_class::IntMult                        0      0.00%     66.67% # Class of executed instruction
system.cpu.op_class::IntDiv                         0      0.00%     66.67% # Class of executed instruction
system.cpu.op_class::FloatAdd                       0      0.00%     66.67% # Class of executed instruction
system.cpu.op_class::FloatCmp                       0      0.00%     66.67% # Class of executed instruction
system.cpu.op_class::FloatCvt                       0      0.00%     66.67% # Class of executed instruction
system.cpu.op_class::FloatMult                      0      0.00%     66.67% # Class of executed instruction
system.cpu.op_class::FloatMultAcc                   0      0.00%     66.67% # Class of executed instruction
system.cpu.op_class::FloatDiv                       0      0.00%     66.67% # Class of executed instruction
system.cpu.op_class::FloatMisc                      0      0.00%     66.67% # Class of executed instruction
system.cpu.op_class::FloatSqrt                      0      0.00%     66.67% # Class of executed instruction
system.cpu.op_class::SimdAdd                        0      0.00%     66.67% # Class of executed instruction
system.cpu.op_class::SimdAddAcc                     0      0.00%     66.67% # Class of executed instruction
system.cpu.op_class::SimdAlu                        0      0.00%     66.67% # Class of executed instruction
system.cpu.op_class::SimdCmp                        0      0.00%     66.67% # Class of executed instruction
system.cpu.op_class::SimdCvt                        0      0.00%     66.67% # Class of executed instruction
system.cpu.op_class::SimdMisc                       0      0.00%     66.67% # Class of executed instruction
system.cpu.op_class::SimdMult                       0      0.00%     66.67% # Class of executed instruction
system.cpu.op_class::SimdMultAcc                    0      0.00%     66.67% # Class of executed instruction
system.cpu.op_class::SimdShift                      0      0.00%     66.67% # Class of executed instruction
system.cpu.op_class::SimdShiftAcc                   0      0.00%     66.67% # Class of executed instruction
system.cpu.op_class::SimdDiv                        0      0.00%     66.67% # Class of executed instruction
system.cpu.op_class::SimdSqrt                       0      0.00%     66.67% # Class of executed instruction
system.cpu.op_class::SimdFloatAdd                   0      0.00%     66.67% # Class of executed instruction
system.cpu.op_class::SimdFloatAlu                   0      0.00%     66.67% # Class of executed instruction
system.cpu.op_class::SimdFloatCmp                   0      0.00%     66.67% # Class of executed instruction
system.cpu.op_class::SimdFloatCvt                   0      0.00%     66.67% # Class of executed instruction
system.cpu.op_class::SimdFloatDiv                   0      0.00%     66.67% # Class of executed instruction
system.cpu.op_class::SimdFloatMisc                  0      0.00%     66.67% # Class of executed instruction
system.cpu.op_class::SimdFloatMult                  0      0.00%     66.67% # Class of executed instruction
system.cpu.op_class::SimdFloatMultAcc               0      0.00%     66.67% # Class of executed instruction
system.cpu.op_class::SimdFloatSqrt                  0      0.00%     66.67% # Class of executed instruction
system.cpu.op_class::SimdReduceAdd                  0      0.00%     66.67% # Class of executed instruction
system.cpu.op_class::SimdReduceAlu                  0      0.00%     66.67% # Class of executed instruction
system.cpu.op_class::SimdReduceCmp                  0      0.00%     66.67% # Class of executed instruction
system.cpu.op_class::SimdFloatReduceAdd             0      0.00%     66.67% # Class of executed instruction
system.cpu.op_class::SimdFloatReduceCmp             0      0.00%     66.67% # Class of executed instruction
system.cpu.op_class::SimdAes                        0      0.00%     66.67% # Class of executed instruction
system.cpu.op_class::SimdAesMix                     0      0.00%     66.67% # Class of executed instruction
system.cpu.op_class::SimdSha1Hash                   0      0.00%     66.67% # Class of executed instruction
system.cpu.op_class::SimdSha1Hash2                  0      0.00%     66.67% # Class of executed instruction
system.cpu.op_class::SimdSha256Hash                 0      0.00%     66.67% # Class of executed instruction
system.cpu.op_class::SimdSha256Hash2                0      0.00%     66.67% # Class of executed instruction
system.cpu.op_class::SimdShaSigma2                  0      0.00%     66.67% # Class of executed instruction
system.cpu.op_class::SimdShaSigma3                  0      0.00%     66.67% # Class of executed instruction
system.cpu.op_class::SimdPredAlu                    0      0.00%     66.67% # Class of executed instruction
system.cpu.op_class::MemRead                        5     27.78%     94.44% # Class of executed instruction
system.cpu.op_class::MemWrite                       1      5.56%    100.00% # Class of executed instruction
system.cpu.op_class::FloatMemRead                   0      0.00%    100.00% # Class of executed instruction
system.cpu.op_class::FloatMemWrite                  0      0.00%    100.00% # Class of executed instruction
system.cpu.op_class::IprAccess                      0      0.00%    100.00% # Class of executed instruction
system.cpu.op_class::InstPrefetch                   0      0.00%    100.00% # Class of executed instruction
system.cpu.op_class::total                         18                       # Class of executed instruction
system.cpu.workload.numSyscalls                     0                       # Number of system calls
system.membus.snoop_filter.hit_multi_requests            0                       # Number of requests hitting in the snoop filter with multiple (>1) holders of the requested data.
system.membus.snoop_filter.hit_multi_snoops            0                       # Number of snoops hitting in the snoop filter with multiple (>1) holders of the requested data.
system.membus.snoop_filter.hit_single_requests       167563                       # Number of requests hitting in the snoop filter with a single holder of the requested data.
system.membus.snoop_filter.hit_single_snoops            0                       # Number of snoops hitting in the snoop filter with a single holder of the requested data.
system.membus.snoop_filter.tot_requests        337502                       # Total number of requests made to the snoop filter.
system.membus.snoop_filter.tot_snoops               0                       # Total number of snoops made to the snoop filter.
system.switch_cpus.branchPred.BTBCorrect            0                       # Number of correct BTB predictions (this stat may not work properly.
system.switch_cpus.branchPred.BTBHitPct      0.000000                       # BTB Hit Percentage
system.switch_cpus.branchPred.BTBHits               0                       # Number of BTB hits
system.switch_cpus.branchPred.BTBLookups      1230059                       # Number of BTB lookups
system.switch_cpus.branchPred.RASInCorrect           32                       # Number of incorrect RAS predictions.
system.switch_cpus.branchPred.condIncorrect        60546                       # Number of conditional branches incorrect
system.switch_cpus.branchPred.condPredicted      1264024                       # Number of conditional branches predicted
system.switch_cpus.branchPred.indirectHits       947868                       # Number of indirect target hits.
system.switch_cpus.branchPred.indirectLookups      1230059                       # Number of indirect predictor lookups.
system.switch_cpus.branchPred.indirectMisses       282191                       # Number of indirect misses.
system.switch_cpus.branchPred.lookups         1335377                       # Number of BP lookups
system.switch_cpus.branchPred.usedRAS           35450                       # Number of times the RAS was used to get a target.
system.switch_cpus.branchPredindirectMispredicted        12545                       # Number of mispredicted indirect branches.
system.switch_cpus.cc_regfile_reads           6153605                       # number of cc regfile reads
system.switch_cpus.cc_regfile_writes          4094330                       # number of cc regfile writes
system.switch_cpus.commit.amos                      0                       # Number of atomic instructions committed
system.switch_cpus.commit.branchMispredicts        60611                       # The number of times a branch was mispredicted
system.switch_cpus.commit.branches            1012410                       # Number of branches committed
system.switch_cpus.commit.bw_lim_events       1373657                       # number cycles where commit BW limit reached
system.switch_cpus.commit.commitSquashedInsts      2238137                       # The number of squashed insts skipped by commit
system.switch_cpus.commit.committedInsts     10000003                       # Number of instructions committed
system.switch_cpus.commit.committedOps       16699628                       # Number of ops (including micro ops) committed
system.switch_cpus.commit.committed_per_cycle::samples     17974267                       # Number of insts commited each cycle
system.switch_cpus.commit.committed_per_cycle::mean     0.929085                       # Number of insts commited each cycle
system.switch_cpus.commit.committed_per_cycle::stdev     2.292340                       # Number of insts commited each cycle
system.switch_cpus.commit.committed_per_cycle::underflows            0      0.00%      0.00% # Number of insts commited each cycle
system.switch_cpus.commit.committed_per_cycle::0     14487486     80.60%     80.60% # Number of insts commited each cycle
system.switch_cpus.commit.committed_per_cycle::1       948446      5.28%     85.88% # Number of insts commited each cycle
system.switch_cpus.commit.committed_per_cycle::2       121872      0.68%     86.56% # Number of insts commited each cycle
system.switch_cpus.commit.committed_per_cycle::3       190598      1.06%     87.62% # Number of insts commited each cycle
system.switch_cpus.commit.committed_per_cycle::4       480354      2.67%     90.29% # Number of insts commited each cycle
system.switch_cpus.commit.committed_per_cycle::5       254571      1.42%     91.71% # Number of insts commited each cycle
system.switch_cpus.commit.committed_per_cycle::6        68864      0.38%     92.09% # Number of insts commited each cycle
system.switch_cpus.commit.committed_per_cycle::7        48419      0.27%     92.36% # Number of insts commited each cycle
system.switch_cpus.commit.committed_per_cycle::8      1373657      7.64%    100.00% # Number of insts commited each cycle
system.switch_cpus.commit.committed_per_cycle::overflows            0      0.00%    100.00% # Number of insts commited each cycle
system.switch_cpus.commit.committed_per_cycle::min_value            0                       # Number of insts commited each cycle
system.switch_cpus.commit.committed_per_cycle::max_value            8                       # Number of insts commited each cycle
system.switch_cpus.commit.committed_per_cycle::total     17974267                       # Number of insts commited each cycle
system.switch_cpus.commit.fp_insts            9250008                       # Number of committed floating point instructions.
system.switch_cpus.commit.function_calls        18108                       # Number of function calls committed.
system.switch_cpus.commit.int_insts           9386149                       # Number of committed integer instructions.
system.switch_cpus.commit.loads               2651089                       # Number of loads committed
system.switch_cpus.commit.membars                   0                       # Number of memory barriers committed
system.switch_cpus.commit.op_class_0::No_OpClass        28068      0.17%      0.17% # Class of committed instruction
system.switch_cpus.commit.op_class_0::IntAlu      7077496     42.38%     42.55% # Class of committed instruction
system.switch_cpus.commit.op_class_0::IntMult           15      0.00%     42.55% # Class of committed instruction
system.switch_cpus.commit.op_class_0::IntDiv           77      0.00%     42.55% # Class of committed instruction
system.switch_cpus.commit.op_class_0::FloatAdd       834706      5.00%     47.55% # Class of committed instruction
system.switch_cpus.commit.op_class_0::FloatCmp            0      0.00%     47.55% # Class of committed instruction
system.switch_cpus.commit.op_class_0::FloatCvt            0      0.00%     47.55% # Class of committed instruction
system.switch_cpus.commit.op_class_0::FloatMult            0      0.00%     47.55% # Class of committed instruction
system.switch_cpus.commit.op_class_0::FloatMultAcc            0      0.00%     47.55% # Class of committed instruction
system.switch_cpus.commit.op_class_0::FloatDiv            0      0.00%     47.55% # Class of committed instruction
system.switch_cpus.commit.op_class_0::FloatMisc            0      0.00%     47.55% # Class of committed instruction
system.switch_cpus.commit.op_class_0::FloatSqrt            0      0.00%     47.55% # Class of committed instruction
system.switch_cpus.commit.op_class_0::SimdAdd            0      0.00%     47.55% # Class of committed instruction
system.switch_cpus.commit.op_class_0::SimdAddAcc            0      0.00%     47.55% # Class of committed instruction
system.switch_cpus.commit.op_class_0::SimdAlu      1472440      8.82%     56.37% # Class of committed instruction
system.switch_cpus.commit.op_class_0::SimdCmp            0      0.00%     56.37% # Class of committed instruction
system.switch_cpus.commit.op_class_0::SimdCvt            6      0.00%     56.37% # Class of committed instruction
system.switch_cpus.commit.op_class_0::SimdMisc        40222      0.24%     56.61% # Class of committed instruction
system.switch_cpus.commit.op_class_0::SimdMult            0      0.00%     56.61% # Class of committed instruction
system.switch_cpus.commit.op_class_0::SimdMultAcc            0      0.00%     56.61% # Class of committed instruction
system.switch_cpus.commit.op_class_0::SimdShift            0      0.00%     56.61% # Class of committed instruction
system.switch_cpus.commit.op_class_0::SimdShiftAcc            0      0.00%     56.61% # Class of committed instruction
system.switch_cpus.commit.op_class_0::SimdDiv            0      0.00%     56.61% # Class of committed instruction
system.switch_cpus.commit.op_class_0::SimdSqrt            0      0.00%     56.61% # Class of committed instruction
system.switch_cpus.commit.op_class_0::SimdFloatAdd      1392117      8.34%     64.94% # Class of committed instruction
system.switch_cpus.commit.op_class_0::SimdFloatAlu            0      0.00%     64.94% # Class of committed instruction
system.switch_cpus.commit.op_class_0::SimdFloatCmp        20118      0.12%     65.06% # Class of committed instruction
system.switch_cpus.commit.op_class_0::SimdFloatCvt      1492478      8.94%     74.00% # Class of committed instruction
system.switch_cpus.commit.op_class_0::SimdFloatDiv            0      0.00%     74.00% # Class of committed instruction
system.switch_cpus.commit.op_class_0::SimdFloatMisc            0      0.00%     74.00% # Class of committed instruction
system.switch_cpus.commit.op_class_0::SimdFloatMult      1432276      8.58%     82.58% # Class of committed instruction
system.switch_cpus.commit.op_class_0::SimdFloatMultAcc            0      0.00%     82.58% # Class of committed instruction
system.switch_cpus.commit.op_class_0::SimdFloatSqrt            0      0.00%     82.58% # Class of committed instruction
system.switch_cpus.commit.op_class_0::SimdReduceAdd            0      0.00%     82.58% # Class of committed instruction
system.switch_cpus.commit.op_class_0::SimdReduceAlu            0      0.00%     82.58% # Class of committed instruction
system.switch_cpus.commit.op_class_0::SimdReduceCmp            0      0.00%     82.58% # Class of committed instruction
system.switch_cpus.commit.op_class_0::SimdFloatReduceAdd            0      0.00%     82.58% # Class of committed instruction
system.switch_cpus.commit.op_class_0::SimdFloatReduceCmp            0      0.00%     82.58% # Class of committed instruction
system.switch_cpus.commit.op_class_0::SimdAes            0      0.00%     82.58% # Class of committed instruction
system.switch_cpus.commit.op_class_0::SimdAesMix            0      0.00%     82.58% # Class of committed instruction
system.switch_cpus.commit.op_class_0::SimdSha1Hash            0      0.00%     82.58% # Class of committed instruction
system.switch_cpus.commit.op_class_0::SimdSha1Hash2            0      0.00%     82.58% # Class of committed instruction
system.switch_cpus.commit.op_class_0::SimdSha256Hash            0      0.00%     82.58% # Class of committed instruction
system.switch_cpus.commit.op_class_0::SimdSha256Hash2            0      0.00%     82.58% # Class of committed instruction
system.switch_cpus.commit.op_class_0::SimdShaSigma2            0      0.00%     82.58% # Class of committed instruction
system.switch_cpus.commit.op_class_0::SimdShaSigma3            0      0.00%     82.58% # Class of committed instruction
system.switch_cpus.commit.op_class_0::SimdPredAlu            0      0.00%     82.58% # Class of committed instruction
system.switch_cpus.commit.op_class_0::MemRead       789848      4.73%     87.31% # Class of committed instruction
system.switch_cpus.commit.op_class_0::MemWrite       194915      1.17%     88.47% # Class of committed instruction
system.switch_cpus.commit.op_class_0::FloatMemRead      1861241     11.15%     99.62% # Class of committed instruction
system.switch_cpus.commit.op_class_0::FloatMemWrite        63605      0.38%    100.00% # Class of committed instruction
system.switch_cpus.commit.op_class_0::IprAccess            0      0.00%    100.00% # Class of committed instruction
system.switch_cpus.commit.op_class_0::InstPrefetch            0      0.00%    100.00% # Class of committed instruction
system.switch_cpus.commit.op_class_0::total     16699628                       # Class of committed instruction
system.switch_cpus.commit.refs                2909609                       # Number of memory references committed
system.switch_cpus.commit.swp_count                 0                       # Number of s/w prefetches committed
system.switch_cpus.commit.vec_insts                 0                       # Number of committed Vector instructions.
system.switch_cpus.committedInsts            10000003                       # Number of Instructions Simulated
system.switch_cpus.committedOps              16699628                       # Number of Ops (including micro ops) Simulated
system.switch_cpus.cpi                       1.832206                       # CPI: Cycles Per Instruction
system.switch_cpus.cpi_total                 1.832206                       # CPI: Total CPI of All Threads
system.switch_cpus.decode.BlockedCycles      14446993                       # Number of cycles decode is blocked
system.switch_cpus.decode.DecodedInsts       19677459                       # Number of instructions handled by decode
system.switch_cpus.decode.IdleCycles          1008970                       # Number of cycles decode is idle
system.switch_cpus.decode.RunCycles           1892356                       # Number of cycles decode is running
system.switch_cpus.decode.SquashCycles          60799                       # Number of cycles decode is squashing
system.switch_cpus.decode.UnblockCycles        881090                       # Number of cycles decode is unblocking
system.switch_cpus.dtb.rdAccesses             3022489                       # TLB accesses on read requests
system.switch_cpus.dtb.rdMisses                 10944                       # TLB misses on read requests
system.switch_cpus.dtb.wrAccesses              288188                       # TLB accesses on write requests
system.switch_cpus.dtb.wrMisses                   598                       # TLB misses on write requests
system.switch_cpus.fetch.Branches             1335377                       # Number of branches that fetch encountered
system.switch_cpus.fetch.CacheLines           1500074                       # Number of cache lines fetched
system.switch_cpus.fetch.Cycles              16681444                       # Number of cycles fetch has run and was not squashing or blocked
system.switch_cpus.fetch.IcacheSquashes         12454                       # Number of outstanding Icache misses that were squashed
system.switch_cpus.fetch.Insts               12430393                       # Number of instructions fetch has processed
system.switch_cpus.fetch.MiscStallCycles           61                       # Number of cycles fetch has spent waiting on interrupts, or bad addresses, or out of MSHRs
system.switch_cpus.fetch.PendingTrapStallCycles         1905                       # Number of stall cycles due to pending traps
system.switch_cpus.fetch.SquashCycles          121598                       # Number of cycles fetch has spent squashing
system.switch_cpus.fetch.branchRate          0.072884                       # Number of branch fetches per cycle
system.switch_cpus.fetch.icacheStallCycles      1546000                       # Number of cycles fetch is stalled on an Icache miss
system.switch_cpus.fetch.predictedBranches       983318                       # Number of branches that fetch has predicted taken
system.switch_cpus.fetch.rate                0.678438                       # Number of inst fetches per cycle
system.switch_cpus.fetch.rateDist::samples     18290209                       # Number of instructions fetched each cycle (Total)
system.switch_cpus.fetch.rateDist::mean      1.139336                       # Number of instructions fetched each cycle (Total)
system.switch_cpus.fetch.rateDist::stdev     2.559792                       # Number of instructions fetched each cycle (Total)
system.switch_cpus.fetch.rateDist::underflows            0      0.00%      0.00% # Number of instructions fetched each cycle (Total)
system.switch_cpus.fetch.rateDist::0         14741291     80.60%     80.60% # Number of instructions fetched each cycle (Total)
system.switch_cpus.fetch.rateDist::1           314055      1.72%     82.31% # Number of instructions fetched each cycle (Total)
system.switch_cpus.fetch.rateDist::2           190659      1.04%     83.36% # Number of instructions fetched each cycle (Total)
system.switch_cpus.fetch.rateDist::3           216071      1.18%     84.54% # Number of instructions fetched each cycle (Total)
system.switch_cpus.fetch.rateDist::4           331502      1.81%     86.35% # Number of instructions fetched each cycle (Total)
system.switch_cpus.fetch.rateDist::5           279073      1.53%     87.88% # Number of instructions fetched each cycle (Total)
system.switch_cpus.fetch.rateDist::6           432273      2.36%     90.24% # Number of instructions fetched each cycle (Total)
system.switch_cpus.fetch.rateDist::7           102184      0.56%     90.80% # Number of instructions fetched each cycle (Total)
system.switch_cpus.fetch.rateDist::8          1683101      9.20%    100.00% # Number of instructions fetched each cycle (Total)
system.switch_cpus.fetch.rateDist::overflows            0      0.00%    100.00% # Number of instructions fetched each cycle (Total)
system.switch_cpus.fetch.rateDist::min_value            0                       # Number of instructions fetched each cycle (Total)
system.switch_cpus.fetch.rateDist::max_value            8                       # Number of instructions fetched each cycle (Total)
system.switch_cpus.fetch.rateDist::total     18290209                       # Number of instructions fetched each cycle (Total)
system.switch_cpus.fp_regfile_reads          16019876                       # number of floating regfile reads
system.switch_cpus.fp_regfile_writes          9302413                       # number of floating regfile writes
system.switch_cpus.idleCycles                   31855                       # Total number of cycles that the CPU has spent unscheduled due to idling
system.switch_cpus.iew.branchMispredicts        67768                       # Number of branch mispredicts detected at execute
system.switch_cpus.iew.exec_branches          1090254                       # Number of branches executed
system.switch_cpus.iew.exec_nop                     0                       # number of nop insts executed
system.switch_cpus.iew.exec_rate             0.991742                       # Inst execution rate
system.switch_cpus.iew.exec_refs              3352036                       # number of memory reference insts executed
system.switch_cpus.iew.exec_stores             288181                       # Number of stores executed
system.switch_cpus.iew.exec_swp                     0                       # number of swp insts executed
system.switch_cpus.iew.iewBlockCycles         7653068                       # Number of cycles IEW is blocking
system.switch_cpus.iew.iewDispLoadInsts       3075864                       # Number of dispatched load instructions
system.switch_cpus.iew.iewDispNonSpecInsts            1                       # Number of dispatched non-speculative instructions
system.switch_cpus.iew.iewDispSquashedInsts         5131                       # Number of squashed instructions skipped by dispatch
system.switch_cpus.iew.iewDispStoreInsts       324659                       # Number of dispatched store instructions
system.switch_cpus.iew.iewDispatchedInsts     18935503                       # Number of instructions dispatched to IQ
system.switch_cpus.iew.iewExecLoadInsts       3063855                       # Number of load instructions executed
system.switch_cpus.iew.iewExecSquashedInsts       110287                       # Number of squashed instructions skipped in execute
system.switch_cpus.iew.iewExecutedInsts      18170762                       # Number of executed instructions
system.switch_cpus.iew.iewIQFullEvents          81499                       # Number of times the IQ has become full, causing a stall
system.switch_cpus.iew.iewIdleCycles                0                       # Number of cycles IEW is idle
system.switch_cpus.iew.iewLSQFullEvents        752257                       # Number of times the LSQ has become full, causing a stall
system.switch_cpus.iew.iewSquashCycles          60799                       # Number of cycles IEW is squashing
system.switch_cpus.iew.iewUnblockCycles        883956                       # Number of cycles IEW is unblocking
system.switch_cpus.iew.lsq.thread0.blockedLoads            0                       # Number of blocked loads due to partial load-store forwarding
system.switch_cpus.iew.lsq.thread0.cacheBlocked        22684                       # Number of times an access to memory failed due to the cache being blocked
system.switch_cpus.iew.lsq.thread0.forwLoads        38581                       # Number of loads that had data forwarded from stores
system.switch_cpus.iew.lsq.thread0.ignoredResponses          251                       # Number of memory responses ignored because the instruction is squashed
system.switch_cpus.iew.lsq.thread0.invAddrLoads            0                       # Number of loads ignored due to an invalid address
system.switch_cpus.iew.lsq.thread0.invAddrSwpfs            0                       # Number of software prefetches ignored due to an invalid address
system.switch_cpus.iew.lsq.thread0.memOrderViolation          206                       # Number of memory ordering violations
system.switch_cpus.iew.lsq.thread0.rescheduledLoads           33                       # Number of loads that were rescheduled
system.switch_cpus.iew.lsq.thread0.squashedLoads       424753                       # Number of loads squashed
system.switch_cpus.iew.lsq.thread0.squashedStores        66137                       # Number of stores squashed
system.switch_cpus.iew.memOrderViolationEvents          206                       # Number of memory order violations
system.switch_cpus.iew.predictedNotTakenIncorrect        19669                       # Number of branches that were predicted not taken incorrectly
system.switch_cpus.iew.predictedTakenIncorrect        48099                       # Number of branches that were predicted taken incorrectly
system.switch_cpus.iew.wb_consumers          23679132                       # num instructions consuming a value
system.switch_cpus.iew.wb_count              17930381                       # cumulative count of insts written-back
system.switch_cpus.iew.wb_fanout             0.589627                       # average fanout of values written-back
system.switch_cpus.iew.wb_producers          13961854                       # num instructions producing a value
system.switch_cpus.iew.wb_rate               0.978622                       # insts written-back per cycle
system.switch_cpus.iew.wb_sent               17956075                       # cumulative count of insts sent to commit
system.switch_cpus.int_regfile_reads         15456685                       # number of integer regfile reads
system.switch_cpus.int_regfile_writes         7218517                       # number of integer regfile writes
system.switch_cpus.ipc                       0.545790                       # IPC: Instructions Per Cycle
system.switch_cpus.ipc_total                 0.545790                       # IPC: Total IPC of All Threads
system.switch_cpus.iq.FU_type_0::No_OpClass        35558      0.19%      0.19% # Type of FU issued
system.switch_cpus.iq.FU_type_0::IntAlu       8020228     43.87%     44.07% # Type of FU issued
system.switch_cpus.iq.FU_type_0::IntMult           28      0.00%     44.07% # Type of FU issued
system.switch_cpus.iq.FU_type_0::IntDiv            80      0.00%     44.07% # Type of FU issued
system.switch_cpus.iq.FU_type_0::FloatAdd       899111      4.92%     48.99% # Type of FU issued
system.switch_cpus.iq.FU_type_0::FloatCmp            0      0.00%     48.99% # Type of FU issued
system.switch_cpus.iq.FU_type_0::FloatCvt            0      0.00%     48.99% # Type of FU issued
system.switch_cpus.iq.FU_type_0::FloatMult            0      0.00%     48.99% # Type of FU issued
system.switch_cpus.iq.FU_type_0::FloatMultAcc            0      0.00%     48.99% # Type of FU issued
system.switch_cpus.iq.FU_type_0::FloatDiv            0      0.00%     48.99% # Type of FU issued
system.switch_cpus.iq.FU_type_0::FloatMisc            0      0.00%     48.99% # Type of FU issued
system.switch_cpus.iq.FU_type_0::FloatSqrt            0      0.00%     48.99% # Type of FU issued
system.switch_cpus.iq.FU_type_0::SimdAdd            0      0.00%     48.99% # Type of FU issued
system.switch_cpus.iq.FU_type_0::SimdAddAcc            0      0.00%     48.99% # Type of FU issued
system.switch_cpus.iq.FU_type_0::SimdAlu      1537087      8.41%     57.39% # Type of FU issued
system.switch_cpus.iq.FU_type_0::SimdCmp            0      0.00%     57.39% # Type of FU issued
system.switch_cpus.iq.FU_type_0::SimdCvt           14      0.00%     57.39% # Type of FU issued
system.switch_cpus.iq.FU_type_0::SimdMisc        41315      0.23%     57.62% # Type of FU issued
system.switch_cpus.iq.FU_type_0::SimdMult            0      0.00%     57.62% # Type of FU issued
system.switch_cpus.iq.FU_type_0::SimdMultAcc            0      0.00%     57.62% # Type of FU issued
system.switch_cpus.iq.FU_type_0::SimdShift            0      0.00%     57.62% # Type of FU issued
system.switch_cpus.iq.FU_type_0::SimdShiftAcc            0      0.00%     57.62% # Type of FU issued
system.switch_cpus.iq.FU_type_0::SimdDiv            0      0.00%     57.62% # Type of FU issued
system.switch_cpus.iq.FU_type_0::SimdSqrt            0      0.00%     57.62% # Type of FU issued
system.switch_cpus.iq.FU_type_0::SimdFloatAdd      1394939      7.63%     65.25% # Type of FU issued
system.switch_cpus.iq.FU_type_0::SimdFloatAlu            0      0.00%     65.25% # Type of FU issued
system.switch_cpus.iq.FU_type_0::SimdFloatCmp        20123      0.11%     65.36% # Type of FU issued
system.switch_cpus.iq.FU_type_0::SimdFloatCvt      1498906      8.20%     73.56% # Type of FU issued
system.switch_cpus.iq.FU_type_0::SimdFloatDiv            0      0.00%     73.56% # Type of FU issued
system.switch_cpus.iq.FU_type_0::SimdFloatMisc            0      0.00%     73.56% # Type of FU issued
system.switch_cpus.iq.FU_type_0::SimdFloatMult      1436107      7.86%     81.41% # Type of FU issued
system.switch_cpus.iq.FU_type_0::SimdFloatMultAcc            0      0.00%     81.41% # Type of FU issued
system.switch_cpus.iq.FU_type_0::SimdFloatSqrt            0      0.00%     81.41% # Type of FU issued
system.switch_cpus.iq.FU_type_0::SimdReduceAdd            0      0.00%     81.41% # Type of FU issued
system.switch_cpus.iq.FU_type_0::SimdReduceAlu            0      0.00%     81.41% # Type of FU issued
system.switch_cpus.iq.FU_type_0::SimdReduceCmp            0      0.00%     81.41% # Type of FU issued
system.switch_cpus.iq.FU_type_0::SimdFloatReduceAdd            0      0.00%     81.41% # Type of FU issued
system.switch_cpus.iq.FU_type_0::SimdFloatReduceCmp            0      0.00%     81.41% # Type of FU issued
system.switch_cpus.iq.FU_type_0::SimdAes            0      0.00%     81.41% # Type of FU issued
system.switch_cpus.iq.FU_type_0::SimdAesMix            0      0.00%     81.41% # Type of FU issued
system.switch_cpus.iq.FU_type_0::SimdSha1Hash            0      0.00%     81.41% # Type of FU issued
system.switch_cpus.iq.FU_type_0::SimdSha1Hash2            0      0.00%     81.41% # Type of FU issued
system.switch_cpus.iq.FU_type_0::SimdSha256Hash            0      0.00%     81.41% # Type of FU issued
system.switch_cpus.iq.FU_type_0::SimdSha256Hash2            0      0.00%     81.41% # Type of FU issued
system.switch_cpus.iq.FU_type_0::SimdShaSigma2            0      0.00%     81.41% # Type of FU issued
system.switch_cpus.iq.FU_type_0::SimdShaSigma3            0      0.00%     81.41% # Type of FU issued
system.switch_cpus.iq.FU_type_0::SimdPredAlu            0      0.00%     81.41% # Type of FU issued
system.switch_cpus.iq.FU_type_0::MemRead      1092388      5.98%     87.39% # Type of FU issued
system.switch_cpus.iq.FU_type_0::MemWrite       228826      1.25%     88.64% # Type of FU issued
system.switch_cpus.iq.FU_type_0::FloatMemRead      2012270     11.01%     99.65% # Type of FU issued
system.switch_cpus.iq.FU_type_0::FloatMemWrite        64075      0.35%    100.00% # Type of FU issued
system.switch_cpus.iq.FU_type_0::IprAccess            0      0.00%    100.00% # Type of FU issued
system.switch_cpus.iq.FU_type_0::InstPrefetch            0      0.00%    100.00% # Type of FU issued
system.switch_cpus.iq.FU_type_0::total       18281055                       # Type of FU issued
system.switch_cpus.iq.fp_alu_accesses         9748531                       # Number of floating point alu accesses
system.switch_cpus.iq.fp_inst_queue_reads     19315548                       # Number of floating instruction queue reads
system.switch_cpus.iq.fp_inst_queue_wakeup_accesses      9414810                       # Number of floating instruction queue wakeup accesses
system.switch_cpus.iq.fp_inst_queue_writes     10141080                       # Number of floating instruction queue writes
system.switch_cpus.iq.fu_busy_cnt              317608                       # FU busy when requested
system.switch_cpus.iq.fu_busy_rate           0.017374                       # FU busy rate (busy events/executed inst)
system.switch_cpus.iq.fu_full::No_OpClass            0      0.00%      0.00% # attempts to use FU when none available
system.switch_cpus.iq.fu_full::IntAlu          107182     33.75%     33.75% # attempts to use FU when none available
system.switch_cpus.iq.fu_full::IntMult              0      0.00%     33.75% # attempts to use FU when none available
system.switch_cpus.iq.fu_full::IntDiv               0      0.00%     33.75% # attempts to use FU when none available
system.switch_cpus.iq.fu_full::FloatAdd             0      0.00%     33.75% # attempts to use FU when none available
system.switch_cpus.iq.fu_full::FloatCmp             0      0.00%     33.75% # attempts to use FU when none available
system.switch_cpus.iq.fu_full::FloatCvt             0      0.00%     33.75% # attempts to use FU when none available
system.switch_cpus.iq.fu_full::FloatMult            0      0.00%     33.75% # attempts to use FU when none available
system.switch_cpus.iq.fu_full::FloatMultAcc            0      0.00%     33.75% # attempts to use FU when none available
system.switch_cpus.iq.fu_full::FloatDiv             0      0.00%     33.75% # attempts to use FU when none available
system.switch_cpus.iq.fu_full::FloatMisc            0      0.00%     33.75% # attempts to use FU when none available
system.switch_cpus.iq.fu_full::FloatSqrt            0      0.00%     33.75% # attempts to use FU when none available
system.switch_cpus.iq.fu_full::SimdAdd              0      0.00%     33.75% # attempts to use FU when none available
system.switch_cpus.iq.fu_full::SimdAddAcc            0      0.00%     33.75% # attempts to use FU when none available
system.switch_cpus.iq.fu_full::SimdAlu          52276     16.46%     50.21% # attempts to use FU when none available
system.switch_cpus.iq.fu_full::SimdCmp              0      0.00%     50.21% # attempts to use FU when none available
system.switch_cpus.iq.fu_full::SimdCvt              0      0.00%     50.21% # attempts to use FU when none available
system.switch_cpus.iq.fu_full::SimdMisc             0      0.00%     50.21% # attempts to use FU when none available
system.switch_cpus.iq.fu_full::SimdMult             0      0.00%     50.21% # attempts to use FU when none available
system.switch_cpus.iq.fu_full::SimdMultAcc            0      0.00%     50.21% # attempts to use FU when none available
system.switch_cpus.iq.fu_full::SimdShift            0      0.00%     50.21% # attempts to use FU when none available
system.switch_cpus.iq.fu_full::SimdShiftAcc            0      0.00%     50.21% # attempts to use FU when none available
system.switch_cpus.iq.fu_full::SimdDiv              0      0.00%     50.21% # attempts to use FU when none available
system.switch_cpus.iq.fu_full::SimdSqrt             0      0.00%     50.21% # attempts to use FU when none available
system.switch_cpus.iq.fu_full::SimdFloatAdd        71373     22.47%     72.68% # attempts to use FU when none available
system.switch_cpus.iq.fu_full::SimdFloatAlu            0      0.00%     72.68% # attempts to use FU when none available
system.switch_cpus.iq.fu_full::SimdFloatCmp            0      0.00%     72.68% # attempts to use FU when none available
system.switch_cpus.iq.fu_full::SimdFloatCvt        19362      6.10%     78.77% # attempts to use FU when none available
system.switch_cpus.iq.fu_full::SimdFloatDiv            0      0.00%     78.77% # attempts to use FU when none available
system.switch_cpus.iq.fu_full::SimdFloatMisc            0      0.00%     78.77% # attempts to use FU when none available
system.switch_cpus.iq.fu_full::SimdFloatMult         4157      1.31%     80.08% # attempts to use FU when none available
system.switch_cpus.iq.fu_full::SimdFloatMultAcc            0      0.00%     80.08% # attempts to use FU when none available
system.switch_cpus.iq.fu_full::SimdFloatSqrt            0      0.00%     80.08% # attempts to use FU when none available
system.switch_cpus.iq.fu_full::SimdReduceAdd            0      0.00%     80.08% # attempts to use FU when none available
system.switch_cpus.iq.fu_full::SimdReduceAlu            0      0.00%     80.08% # attempts to use FU when none available
system.switch_cpus.iq.fu_full::SimdReduceCmp            0      0.00%     80.08% # attempts to use FU when none available
system.switch_cpus.iq.fu_full::SimdFloatReduceAdd            0      0.00%     80.08% # attempts to use FU when none available
system.switch_cpus.iq.fu_full::SimdFloatReduceCmp            0      0.00%     80.08% # attempts to use FU when none available
system.switch_cpus.iq.fu_full::SimdAes              0      0.00%     80.08% # attempts to use FU when none available
system.switch_cpus.iq.fu_full::SimdAesMix            0      0.00%     80.08% # attempts to use FU when none available
system.switch_cpus.iq.fu_full::SimdSha1Hash            0      0.00%     80.08% # attempts to use FU when none available
system.switch_cpus.iq.fu_full::SimdSha1Hash2            0      0.00%     80.08% # attempts to use FU when none available
system.switch_cpus.iq.fu_full::SimdSha256Hash            0      0.00%     80.08% # attempts to use FU when none available
system.switch_cpus.iq.fu_full::SimdSha256Hash2            0      0.00%     80.08% # attempts to use FU when none available
system.switch_cpus.iq.fu_full::SimdShaSigma2            0      0.00%     80.08% # attempts to use FU when none available
system.switch_cpus.iq.fu_full::SimdShaSigma3            0      0.00%     80.08% # attempts to use FU when none available
system.switch_cpus.iq.fu_full::SimdPredAlu            0      0.00%     80.08% # attempts to use FU when none available
system.switch_cpus.iq.fu_full::MemRead          22462      7.07%     87.16% # attempts to use FU when none available
system.switch_cpus.iq.fu_full::MemWrite          4441      1.40%     88.55% # attempts to use FU when none available
system.switch_cpus.iq.fu_full::FloatMemRead        36303     11.43%     99.98% # attempts to use FU when none available
system.switch_cpus.iq.fu_full::FloatMemWrite           52      0.02%    100.00% # attempts to use FU when none available
system.switch_cpus.iq.fu_full::IprAccess            0      0.00%    100.00% # attempts to use FU when none available
system.switch_cpus.iq.fu_full::InstPrefetch            0      0.00%    100.00% # attempts to use FU when none available
system.switch_cpus.iq.int_alu_accesses        8814574                       # Number of integer alu accesses
system.switch_cpus.iq.int_inst_queue_reads     35893419                       # Number of integer instruction queue reads
system.switch_cpus.iq.int_inst_queue_wakeup_accesses      8515571                       # Number of integer instruction queue wakeup accesses
system.switch_cpus.iq.int_inst_queue_writes     11030370                       # Number of integer instruction queue writes
system.switch_cpus.iq.iqInstsAdded           18935500                       # Number of instructions added to the IQ (excludes non-spec)
system.switch_cpus.iq.iqInstsIssued          18281055                       # Number of instructions issued
system.switch_cpus.iq.iqNonSpecInstsAdded            3                       # Number of non-speculative instructions added to the IQ
system.switch_cpus.iq.iqSquashedInstsExamined      2235743                       # Number of squashed instructions iterated over during squash; mainly for profiling
system.switch_cpus.iq.iqSquashedInstsIssued        39046                       # Number of squashed instructions issued
system.switch_cpus.iq.iqSquashedNonSpecRemoved            3                       # Number of squashed non-spec instructions that were removed
system.switch_cpus.iq.iqSquashedOperandsExamined      3345009                       # Number of squashed operands that are examined and possibly removed from graph
system.switch_cpus.iq.issued_per_cycle::samples     18290209                       # Number of insts issued each cycle
system.switch_cpus.iq.issued_per_cycle::mean     0.999500                       # Number of insts issued each cycle
system.switch_cpus.iq.issued_per_cycle::stdev     1.870005                       # Number of insts issued each cycle
system.switch_cpus.iq.issued_per_cycle::underflows            0      0.00%      0.00% # Number of insts issued each cycle
system.switch_cpus.iq.issued_per_cycle::0     12643861     69.13%     69.13% # Number of insts issued each cycle
system.switch_cpus.iq.issued_per_cycle::1      1457087      7.97%     77.10% # Number of insts issued each cycle
system.switch_cpus.iq.issued_per_cycle::2      1071684      5.86%     82.95% # Number of insts issued each cycle
system.switch_cpus.iq.issued_per_cycle::3       879916      4.81%     87.77% # Number of insts issued each cycle
system.switch_cpus.iq.issued_per_cycle::4       767524      4.20%     91.96% # Number of insts issued each cycle
system.switch_cpus.iq.issued_per_cycle::5       524115      2.87%     94.83% # Number of insts issued each cycle
system.switch_cpus.iq.issued_per_cycle::6       454732      2.49%     97.31% # Number of insts issued each cycle
system.switch_cpus.iq.issued_per_cycle::7       308531      1.69%     99.00% # Number of insts issued each cycle
system.switch_cpus.iq.issued_per_cycle::8       182759      1.00%    100.00% # Number of insts issued each cycle
system.switch_cpus.iq.issued_per_cycle::overflows            0      0.00%    100.00% # Number of insts issued each cycle
system.switch_cpus.iq.issued_per_cycle::min_value            0                       # Number of insts issued each cycle
system.switch_cpus.iq.issued_per_cycle::max_value            8                       # Number of insts issued each cycle
system.switch_cpus.iq.issued_per_cycle::total     18290209                       # Number of insts issued each cycle
system.switch_cpus.iq.rate                   0.997762                       # Inst issue rate
system.switch_cpus.iq.vec_alu_accesses              0                       # Number of vector alu accesses
system.switch_cpus.iq.vec_inst_queue_reads            0                       # Number of vector instruction queue reads
system.switch_cpus.iq.vec_inst_queue_wakeup_accesses            0                       # Number of vector instruction queue wakeup accesses
system.switch_cpus.iq.vec_inst_queue_writes            0                       # Number of vector instruction queue writes
system.switch_cpus.itb.rdAccesses                   0                       # TLB accesses on read requests
system.switch_cpus.itb.rdMisses                     0                       # TLB misses on read requests
system.switch_cpus.itb.wrAccesses             1500330                       # TLB accesses on write requests
system.switch_cpus.itb.wrMisses                   292                       # TLB misses on write requests
system.switch_cpus.memDep0.conflictingLoads        43536                       # Number of conflicting loads.
system.switch_cpus.memDep0.conflictingStores        16688                       # Number of conflicting stores.
system.switch_cpus.memDep0.insertedLoads      3075864                       # Number of loads inserted to the mem dependence unit.
system.switch_cpus.memDep0.insertedStores       324659                       # Number of stores inserted to the mem dependence unit.
system.switch_cpus.misc_regfile_reads         5624616                       # number of misc regfile reads
system.switch_cpus.misc_regfile_writes              1                       # number of misc regfile writes
system.switch_cpus.numCycles                 18322064                       # number of cpu cycles simulated
system.switch_cpus.numWorkItemsCompleted            0                       # number of work items this cpu completed
system.switch_cpus.numWorkItemsStarted              0                       # number of work items this cpu started
system.switch_cpus.rename.BlockCycles        11585720                       # Number of cycles rename is blocking
system.switch_cpus.rename.CommittedMaps      19126939                       # Number of HB maps that are committed
system.switch_cpus.rename.IQFullEvents        1538779                       # Number of times rename has blocked due to IQ full
system.switch_cpus.rename.IdleCycles          1365960                       # Number of cycles rename is idle
system.switch_cpus.rename.LQFullEvents         438331                       # Number of times rename has blocked due to LQ full
system.switch_cpus.rename.ROBFullEvents        150406                       # Number of times rename has blocked due to ROB full
system.switch_cpus.rename.RenameLookups      47059137                       # Number of register rename lookups that rename has made
system.switch_cpus.rename.RenamedInsts       19385674                       # Number of instructions processed by rename
system.switch_cpus.rename.RenamedOperands     22344572                       # Number of destination operands rename has renamed
system.switch_cpus.rename.RunCycles           2358447                       # Number of cycles rename is running
system.switch_cpus.rename.SQFullEvents         671359                       # Number of times rename has blocked due to SQ full
system.switch_cpus.rename.SquashCycles          60799                       # Number of cycles rename is squashing
system.switch_cpus.rename.UnblockCycles       2919282                       # Number of cycles rename is unblocking
system.switch_cpus.rename.UndoneMaps          3217475                       # Number of HB maps that are undone due to squashing
system.switch_cpus.rename.fp_rename_lookups     16837262                       # Number of floating rename lookups
system.switch_cpus.rename.int_rename_lookups     17070356                       # Number of integer rename lookups
system.switch_cpus.rename.serializeStallCycles            0                       # count of cycles rename stalled for serializing inst
system.switch_cpus.rename.serializingInsts            0                       # count of serializing insts renamed
system.switch_cpus.rename.skidInsts           4599168                       # count of insts added to the skid buffer
system.switch_cpus.rename.tempSerializingInsts            0                       # count of temporary serializing insts renamed
system.switch_cpus.rob.rob_reads             35538375                       # The number of ROB reads
system.switch_cpus.rob.rob_writes            38192140                       # The number of ROB writes
system.switch_cpus.timesIdled                     372                       # Number of times that the entire CPU went into an idle state and unscheduled itself
system.tol2bus.snoop_filter.hit_multi_requests            0                       # Number of requests hitting in the snoop filter with multiple (>1) holders of the requested data.
system.tol2bus.snoop_filter.hit_multi_snoops            0                       # Number of snoops hitting in the snoop filter with multiple (>1) holders of the requested data.
system.tol2bus.snoop_filter.hit_single_requests       183594                       # Number of requests hitting in the snoop filter with a single holder of the requested data.
system.tol2bus.snoop_filter.hit_single_snoops        62817                       # Number of snoops hitting in the snoop filter with a single holder of the requested data.
system.tol2bus.snoop_filter.tot_requests       368504                       # Total number of requests made to the snoop filter.
system.tol2bus.snoop_filter.tot_snoops          62817                       # Total number of snoops made to the snoop filter.
system.membus.pwrStateResidencyTicks::UNDEFINED 270776441096000                       # Cumulative time (in ticks) in various power states
system.membus.trans_dist::ReadResp             158472                       # Transaction distribution
system.membus.trans_dist::WritebackDirty        16157                       # Transaction distribution
system.membus.trans_dist::CleanEvict           151406                       # Transaction distribution
system.membus.trans_dist::ReadExReq             11466                       # Transaction distribution
system.membus.trans_dist::ReadExResp            11466                       # Transaction distribution
system.membus.trans_dist::ReadSharedReq        158473                       # Transaction distribution
system.membus.pkt_count_system.l2.mem_side::system.mem_ctrls.port       507440                       # Packet count per connected master and slave (bytes)
system.membus.pkt_count_system.l2.mem_side::total       507440                       # Packet count per connected master and slave (bytes)
system.membus.pkt_count::total                 507440                       # Packet count per connected master and slave (bytes)
system.membus.pkt_size_system.l2.mem_side::system.mem_ctrls.port     11910080                       # Cumulative packet size per connected master and slave (bytes)
system.membus.pkt_size_system.l2.mem_side::total     11910080                       # Cumulative packet size per connected master and slave (bytes)
system.membus.pkt_size::total                11910080                       # Cumulative packet size per connected master and slave (bytes)
system.membus.snoops                                0                       # Total snoops (count)
system.membus.snoopTraffic                          0                       # Total snoop traffic (bytes)
system.membus.snoop_fanout::samples            169939                       # Request fanout histogram
system.membus.snoop_fanout::mean                    0                       # Request fanout histogram
system.membus.snoop_fanout::stdev                   0                       # Request fanout histogram
system.membus.snoop_fanout::underflows              0      0.00%      0.00% # Request fanout histogram
system.membus.snoop_fanout::0                  169939    100.00%    100.00% # Request fanout histogram
system.membus.snoop_fanout::1                       0      0.00%    100.00% # Request fanout histogram
system.membus.snoop_fanout::overflows               0      0.00%    100.00% # Request fanout histogram
system.membus.snoop_fanout::min_value               0                       # Request fanout histogram
system.membus.snoop_fanout::max_value               0                       # Request fanout histogram
system.membus.snoop_fanout::total              169939                       # Request fanout histogram
system.membus.reqLayer2.occupancy           436005500                       # Layer occupancy (ticks)
system.membus.reqLayer2.utilization               4.8                       # Layer utilization (%)
system.membus.respLayer1.occupancy          908497250                       # Layer occupancy (ticks)
system.membus.respLayer1.utilization              9.9                       # Layer utilization (%)
system.switch_cpus.pwrStateResidencyTicks::OFF   9161042250                       # Cumulative time (in ticks) in various power states
system.switch_cpus.dtb.walker.pwrStateResidencyTicks::UNDEFINED 270776441096000                       # Cumulative time (in ticks) in various power states
system.switch_cpus.itb.walker.pwrStateResidencyTicks::UNDEFINED 270776441096000                       # Cumulative time (in ticks) in various power states
system.tol2bus.pwrStateResidencyTicks::UNDEFINED 270776441096000                       # Cumulative time (in ticks) in various power states
system.tol2bus.trans_dist::ReadResp            172553                       # Transaction distribution
system.tol2bus.trans_dist::WritebackDirty        37606                       # Transaction distribution
system.tol2bus.trans_dist::WritebackClean          174                       # Transaction distribution
system.tol2bus.trans_dist::CleanEvict          323213                       # Transaction distribution
system.tol2bus.trans_dist::ReadExReq            12356                       # Transaction distribution
system.tol2bus.trans_dist::ReadExResp           12356                       # Transaction distribution
system.tol2bus.trans_dist::ReadCleanReq           465                       # Transaction distribution
system.tol2bus.trans_dist::ReadSharedReq       172089                       # Transaction distribution
system.tol2bus.pkt_count_system.cpu.icache.mem_side::system.l2.cpu_side         1104                       # Packet count per connected master and slave (bytes)
system.tol2bus.pkt_count_system.cpu.dcache.mem_side::system.l2.cpu_side       552309                       # Packet count per connected master and slave (bytes)
system.tol2bus.pkt_count::total                553413                       # Packet count per connected master and slave (bytes)
system.tol2bus.pkt_size_system.cpu.icache.mem_side::system.l2.cpu_side        40896                       # Cumulative packet size per connected master and slave (bytes)
system.tol2bus.pkt_size_system.cpu.dcache.mem_side::system.l2.cpu_side     13177152                       # Cumulative packet size per connected master and slave (bytes)
system.tol2bus.pkt_size::total               13218048                       # Cumulative packet size per connected master and slave (bytes)
system.tol2bus.snoops                          177399                       # Total snoops (count)
system.tol2bus.snoopTraffic                   1034048                       # Total snoop traffic (bytes)
system.tol2bus.snoop_fanout::samples           362309                       # Request fanout histogram
system.tol2bus.snoop_fanout::mean            0.173380                       # Request fanout histogram
system.tol2bus.snoop_fanout::stdev           0.378576                       # Request fanout histogram
system.tol2bus.snoop_fanout::underflows             0      0.00%      0.00% # Request fanout histogram
system.tol2bus.snoop_fanout::0                 299492     82.66%     82.66% # Request fanout histogram
system.tol2bus.snoop_fanout::1                  62817     17.34%    100.00% # Request fanout histogram
system.tol2bus.snoop_fanout::2                      0      0.00%    100.00% # Request fanout histogram
system.tol2bus.snoop_fanout::3                      0      0.00%    100.00% # Request fanout histogram
system.tol2bus.snoop_fanout::4                      0      0.00%    100.00% # Request fanout histogram
system.tol2bus.snoop_fanout::overflows              0      0.00%    100.00% # Request fanout histogram
system.tol2bus.snoop_fanout::min_value              0                       # Request fanout histogram
system.tol2bus.snoop_fanout::max_value              1                       # Request fanout histogram
system.tol2bus.snoop_fanout::total             362309                       # Request fanout histogram
system.tol2bus.reqLayer0.occupancy          205872500                       # Layer occupancy (ticks)
system.tol2bus.reqLayer0.utilization              2.2                       # Layer utilization (%)
system.tol2bus.respLayer1.occupancy         276661500                       # Layer occupancy (ticks)
system.tol2bus.respLayer1.utilization             3.0                       # Layer utilization (%)
system.tol2bus.respLayer0.occupancy            694500                       # Layer occupancy (ticks)
system.tol2bus.respLayer0.utilization             0.0                       # Layer utilization (%)
system.voltage_domain.voltage                       1                       # Voltage in Volts
system.clk_domain.clock                          1000                       # Clock period in ticks
system.l2.pwrStateResidencyTicks::UNDEFINED 270776441096000                       # Cumulative time (in ticks) in various power states
system.l2.demand_hits::.switch_cpus.inst           21                       # number of demand (read+write) hits
system.l2.demand_hits::.switch_cpus.data        14950                       # number of demand (read+write) hits
system.l2.demand_hits::total                    14971                       # number of demand (read+write) hits
system.l2.overall_hits::.switch_cpus.inst           21                       # number of overall hits
system.l2.overall_hits::.switch_cpus.data        14950                       # number of overall hits
system.l2.overall_hits::total                   14971                       # number of overall hits
system.l2.demand_misses::.cpu.inst                  2                       # number of demand (read+write) misses
system.l2.demand_misses::.cpu.data                  3                       # number of demand (read+write) misses
system.l2.demand_misses::.switch_cpus.inst          442                       # number of demand (read+write) misses
system.l2.demand_misses::.switch_cpus.data       169492                       # number of demand (read+write) misses
system.l2.demand_misses::total                 169939                       # number of demand (read+write) misses
system.l2.overall_misses::.cpu.inst                 2                       # number of overall misses
system.l2.overall_misses::.cpu.data                 3                       # number of overall misses
system.l2.overall_misses::.switch_cpus.inst          442                       # number of overall misses
system.l2.overall_misses::.switch_cpus.data       169492                       # number of overall misses
system.l2.overall_misses::total                169939                       # number of overall misses
system.l2.demand_miss_latency::.switch_cpus.inst     40418500                       # number of demand (read+write) miss cycles
system.l2.demand_miss_latency::.switch_cpus.data  14038167000                       # number of demand (read+write) miss cycles
system.l2.demand_miss_latency::total      14078585500                       # number of demand (read+write) miss cycles
system.l2.overall_miss_latency::.switch_cpus.inst     40418500                       # number of overall miss cycles
system.l2.overall_miss_latency::.switch_cpus.data  14038167000                       # number of overall miss cycles
system.l2.overall_miss_latency::total     14078585500                       # number of overall miss cycles
system.l2.demand_accesses::.cpu.inst                2                       # number of demand (read+write) accesses
system.l2.demand_accesses::.cpu.data                3                       # number of demand (read+write) accesses
system.l2.demand_accesses::.switch_cpus.inst          463                       # number of demand (read+write) accesses
system.l2.demand_accesses::.switch_cpus.data       184442                       # number of demand (read+write) accesses
system.l2.demand_accesses::total               184910                       # number of demand (read+write) accesses
system.l2.overall_accesses::.cpu.inst               2                       # number of overall (read+write) accesses
system.l2.overall_accesses::.cpu.data               3                       # number of overall (read+write) accesses
system.l2.overall_accesses::.switch_cpus.inst          463                       # number of overall (read+write) accesses
system.l2.overall_accesses::.switch_cpus.data       184442                       # number of overall (read+write) accesses
system.l2.overall_accesses::total              184910                       # number of overall (read+write) accesses
system.l2.demand_miss_rate::.cpu.inst               1                       # miss rate for demand accesses
system.l2.demand_miss_rate::.cpu.data               1                       # miss rate for demand accesses
system.l2.demand_miss_rate::.switch_cpus.inst     0.954644                       # miss rate for demand accesses
system.l2.demand_miss_rate::.switch_cpus.data     0.918945                       # miss rate for demand accesses
system.l2.demand_miss_rate::total            0.919036                       # miss rate for demand accesses
system.l2.overall_miss_rate::.cpu.inst              1                       # miss rate for overall accesses
system.l2.overall_miss_rate::.cpu.data              1                       # miss rate for overall accesses
system.l2.overall_miss_rate::.switch_cpus.inst     0.954644                       # miss rate for overall accesses
system.l2.overall_miss_rate::.switch_cpus.data     0.918945                       # miss rate for overall accesses
system.l2.overall_miss_rate::total           0.919036                       # miss rate for overall accesses
system.l2.demand_avg_miss_latency::.switch_cpus.inst 91444.570136                       # average overall miss latency
system.l2.demand_avg_miss_latency::.switch_cpus.data 82824.953390                       # average overall miss latency
system.l2.demand_avg_miss_latency::total 82844.935536                       # average overall miss latency
system.l2.overall_avg_miss_latency::.switch_cpus.inst 91444.570136                       # average overall miss latency
system.l2.overall_avg_miss_latency::.switch_cpus.data 82824.953390                       # average overall miss latency
system.l2.overall_avg_miss_latency::total 82844.935536                       # average overall miss latency
system.l2.blocked_cycles::no_mshrs                  0                       # number of cycles access was blocked
system.l2.blocked_cycles::no_targets                0                       # number of cycles access was blocked
system.l2.blocked::no_mshrs                         0                       # number of cycles access was blocked
system.l2.blocked::no_targets                       0                       # number of cycles access was blocked
system.l2.avg_blocked_cycles::no_mshrs            nan                       # average number of cycles each access was blocked
system.l2.avg_blocked_cycles::no_targets          nan                       # average number of cycles each access was blocked
system.l2.writebacks::.writebacks               16157                       # number of writebacks
system.l2.writebacks::total                     16157                       # number of writebacks
system.l2.demand_mshr_misses::.switch_cpus.inst          442                       # number of demand (read+write) MSHR misses
system.l2.demand_mshr_misses::.switch_cpus.data       169492                       # number of demand (read+write) MSHR misses
system.l2.demand_mshr_misses::total            169934                       # number of demand (read+write) MSHR misses
system.l2.overall_mshr_misses::.switch_cpus.inst          442                       # number of overall MSHR misses
system.l2.overall_mshr_misses::.switch_cpus.data       169492                       # number of overall MSHR misses
system.l2.overall_mshr_misses::total           169934                       # number of overall MSHR misses
system.l2.demand_mshr_miss_latency::.switch_cpus.inst     35998500                       # number of demand (read+write) MSHR miss cycles
system.l2.demand_mshr_miss_latency::.switch_cpus.data  12343257000                       # number of demand (read+write) MSHR miss cycles
system.l2.demand_mshr_miss_latency::total  12379255500                       # number of demand (read+write) MSHR miss cycles
system.l2.overall_mshr_miss_latency::.switch_cpus.inst     35998500                       # number of overall MSHR miss cycles
system.l2.overall_mshr_miss_latency::.switch_cpus.data  12343257000                       # number of overall MSHR miss cycles
system.l2.overall_mshr_miss_latency::total  12379255500                       # number of overall MSHR miss cycles
system.l2.demand_mshr_miss_rate::.switch_cpus.inst     0.954644                       # mshr miss rate for demand accesses
system.l2.demand_mshr_miss_rate::.switch_cpus.data     0.918945                       # mshr miss rate for demand accesses
system.l2.demand_mshr_miss_rate::total       0.919009                       # mshr miss rate for demand accesses
system.l2.overall_mshr_miss_rate::.switch_cpus.inst     0.954644                       # mshr miss rate for overall accesses
system.l2.overall_mshr_miss_rate::.switch_cpus.data     0.918945                       # mshr miss rate for overall accesses
system.l2.overall_mshr_miss_rate::total      0.919009                       # mshr miss rate for overall accesses
system.l2.demand_avg_mshr_miss_latency::.switch_cpus.inst 81444.570136                       # average overall mshr miss latency
system.l2.demand_avg_mshr_miss_latency::.switch_cpus.data 72825.012390                       # average overall mshr miss latency
system.l2.demand_avg_mshr_miss_latency::total 72847.431944                       # average overall mshr miss latency
system.l2.overall_avg_mshr_miss_latency::.switch_cpus.inst 81444.570136                       # average overall mshr miss latency
system.l2.overall_avg_mshr_miss_latency::.switch_cpus.data 72825.012390                       # average overall mshr miss latency
system.l2.overall_avg_mshr_miss_latency::total 72847.431944                       # average overall mshr miss latency
system.l2.replacements                         177399                       # number of replacements
system.l2.WritebackDirty_hits::.writebacks        21449                       # number of WritebackDirty hits
system.l2.WritebackDirty_hits::total            21449                       # number of WritebackDirty hits
system.l2.WritebackDirty_accesses::.writebacks        21449                       # number of WritebackDirty accesses(hits+misses)
system.l2.WritebackDirty_accesses::total        21449                       # number of WritebackDirty accesses(hits+misses)
system.l2.WritebackClean_hits::.writebacks          174                       # number of WritebackClean hits
system.l2.WritebackClean_hits::total              174                       # number of WritebackClean hits
system.l2.WritebackClean_accesses::.writebacks          174                       # number of WritebackClean accesses(hits+misses)
system.l2.WritebackClean_accesses::total          174                       # number of WritebackClean accesses(hits+misses)
system.l2.CleanEvict_mshr_misses::.writebacks        52981                       # number of CleanEvict MSHR misses
system.l2.CleanEvict_mshr_misses::total         52981                       # number of CleanEvict MSHR misses
system.l2.CleanEvict_mshr_miss_rate::.writebacks          inf                       # mshr miss rate for CleanEvict accesses
system.l2.CleanEvict_mshr_miss_rate::total          inf                       # mshr miss rate for CleanEvict accesses
system.l2.ReadExReq_hits::.switch_cpus.data          890                       # number of ReadExReq hits
system.l2.ReadExReq_hits::total                   890                       # number of ReadExReq hits
system.l2.ReadExReq_misses::.cpu.data               1                       # number of ReadExReq misses
system.l2.ReadExReq_misses::.switch_cpus.data        11465                       # number of ReadExReq misses
system.l2.ReadExReq_misses::total               11466                       # number of ReadExReq misses
system.l2.ReadExReq_miss_latency::.switch_cpus.data    920114000                       # number of ReadExReq miss cycles
system.l2.ReadExReq_miss_latency::total     920114000                       # number of ReadExReq miss cycles
system.l2.ReadExReq_accesses::.cpu.data             1                       # number of ReadExReq accesses(hits+misses)
system.l2.ReadExReq_accesses::.switch_cpus.data        12355                       # number of ReadExReq accesses(hits+misses)
system.l2.ReadExReq_accesses::total             12356                       # number of ReadExReq accesses(hits+misses)
system.l2.ReadExReq_miss_rate::.cpu.data            1                       # miss rate for ReadExReq accesses
system.l2.ReadExReq_miss_rate::.switch_cpus.data     0.927964                       # miss rate for ReadExReq accesses
system.l2.ReadExReq_miss_rate::total         0.927970                       # miss rate for ReadExReq accesses
system.l2.ReadExReq_avg_miss_latency::.switch_cpus.data 80254.164850                       # average ReadExReq miss latency
system.l2.ReadExReq_avg_miss_latency::total 80247.165533                       # average ReadExReq miss latency
system.l2.ReadExReq_mshr_misses::.switch_cpus.data        11465                       # number of ReadExReq MSHR misses
system.l2.ReadExReq_mshr_misses::total          11465                       # number of ReadExReq MSHR misses
system.l2.ReadExReq_mshr_miss_latency::.switch_cpus.data    805464000                       # number of ReadExReq MSHR miss cycles
system.l2.ReadExReq_mshr_miss_latency::total    805464000                       # number of ReadExReq MSHR miss cycles
system.l2.ReadExReq_mshr_miss_rate::.switch_cpus.data     0.927964                       # mshr miss rate for ReadExReq accesses
system.l2.ReadExReq_mshr_miss_rate::total     0.927889                       # mshr miss rate for ReadExReq accesses
system.l2.ReadExReq_avg_mshr_miss_latency::.switch_cpus.data 70254.164850                       # average ReadExReq mshr miss latency
system.l2.ReadExReq_avg_mshr_miss_latency::total 70254.164850                       # average ReadExReq mshr miss latency
system.l2.ReadCleanReq_hits::.switch_cpus.inst           21                       # number of ReadCleanReq hits
system.l2.ReadCleanReq_hits::total                 21                       # number of ReadCleanReq hits
system.l2.ReadCleanReq_misses::.cpu.inst            2                       # number of ReadCleanReq misses
system.l2.ReadCleanReq_misses::.switch_cpus.inst          442                       # number of ReadCleanReq misses
system.l2.ReadCleanReq_misses::total              444                       # number of ReadCleanReq misses
system.l2.ReadCleanReq_miss_latency::.switch_cpus.inst     40418500                       # number of ReadCleanReq miss cycles
system.l2.ReadCleanReq_miss_latency::total     40418500                       # number of ReadCleanReq miss cycles
system.l2.ReadCleanReq_accesses::.cpu.inst            2                       # number of ReadCleanReq accesses(hits+misses)
system.l2.ReadCleanReq_accesses::.switch_cpus.inst          463                       # number of ReadCleanReq accesses(hits+misses)
system.l2.ReadCleanReq_accesses::total            465                       # number of ReadCleanReq accesses(hits+misses)
system.l2.ReadCleanReq_miss_rate::.cpu.inst            1                       # miss rate for ReadCleanReq accesses
system.l2.ReadCleanReq_miss_rate::.switch_cpus.inst     0.954644                       # miss rate for ReadCleanReq accesses
[...]
system.cpu.itb.walker.pwrStateResidencyTicks::UNDEFINED 270804204075000                       # Cumulative time (in ticks) in various power states
system.cpu.dtb_walker_cache.pwrStateResidencyTicks::UNDEFINED 270804204075000                       # Cumulative time (in ticks) in various power states
system.cpu.dtb_walker_cache.blocked_cycles::no_mshrs            0                       # number of cycles access was blocked
system.cpu.dtb_walker_cache.blocked_cycles::no_targets            0                       # number of cycles access was blocked
system.cpu.dtb_walker_cache.blocked::no_mshrs            0                       # number of cycles access was blocked
system.cpu.dtb_walker_cache.blocked::no_targets            0                       # number of cycles access was blocked
system.cpu.dtb_walker_cache.avg_blocked_cycles::no_mshrs          nan                       # average number of cycles each access was blocked
system.cpu.dtb_walker_cache.avg_blocked_cycles::no_targets          nan                       # average number of cycles each access was blocked
system.cpu.dtb_walker_cache.replacements            0                       # number of replacements
system.cpu.dtb_walker_cache.tags.pwrStateResidencyTicks::UNDEFINED 270804204075000                       # Cumulative time (in ticks) in various power states
system.cpu.dtb_walker_cache.tags.tagsinuse            0                       # Cycle average of tags in use
system.cpu.dtb_walker_cache.tags.total_refs            0                       # Total number of references to valid blocks.
system.cpu.dtb_walker_cache.tags.sampled_refs            0                       # Sample count of references to valid blocks.
system.cpu.dtb_walker_cache.tags.avg_refs          nan                       # Average number of references to valid blocks.
system.cpu.dtb_walker_cache.tags.warmup_cycle            0                       # Cycle when the warmup percentage was hit.
system.cpu.dtb_walker_cache.tags.tag_accesses            0                       # Number of tag accesses
system.cpu.dtb_walker_cache.tags.data_accesses            0                       # Number of data accesses
system.cpu.dcache.pwrStateResidencyTicks::UNDEFINED 270804204075000                       # Cumulative time (in ticks) in various power states
system.cpu.dcache.demand_hits::.cpu.data            3                       # number of demand (read+write) hits
system.cpu.dcache.demand_hits::.switch_cpus.data     10283021                       # number of demand (read+write) hits
system.cpu.dcache.demand_hits::total         10283024                       # number of demand (read+write) hits
system.cpu.dcache.overall_hits::.cpu.data            3                       # number of overall hits
system.cpu.dcache.overall_hits::.switch_cpus.data     10299143                       # number of overall hits
system.cpu.dcache.overall_hits::total        10299146                       # number of overall hits
system.cpu.dcache.demand_misses::.cpu.data            3                       # number of demand (read+write) misses
system.cpu.dcache.demand_misses::.switch_cpus.data      3047778                       # number of demand (read+write) misses
system.cpu.dcache.demand_misses::total        3047781                       # number of demand (read+write) misses
system.cpu.dcache.overall_misses::.cpu.data            3                       # number of overall misses
system.cpu.dcache.overall_misses::.switch_cpus.data      3048058                       # number of overall misses
system.cpu.dcache.overall_misses::total       3048061                       # number of overall misses
system.cpu.dcache.demand_miss_latency::.switch_cpus.data 207485485765                       # number of demand (read+write) miss cycles
system.cpu.dcache.demand_miss_latency::total 207485485765                       # number of demand (read+write) miss cycles
system.cpu.dcache.overall_miss_latency::.switch_cpus.data 207485485765                       # number of overall miss cycles
system.cpu.dcache.overall_miss_latency::total 207485485765                       # number of overall miss cycles
system.cpu.dcache.demand_accesses::.cpu.data            6                       # number of demand (read+write) accesses
system.cpu.dcache.demand_accesses::.switch_cpus.data     13330799                       # number of demand (read+write) accesses
system.cpu.dcache.demand_accesses::total     13330805                       # number of demand (read+write) accesses
system.cpu.dcache.overall_accesses::.cpu.data            6                       # number of overall (read+write) accesses
system.cpu.dcache.overall_accesses::.switch_cpus.data     13347201                       # number of overall (read+write) accesses
system.cpu.dcache.overall_accesses::total     13347207                       # number of overall (read+write) accesses
system.cpu.dcache.demand_miss_rate::.cpu.data     0.500000                       # miss rate for demand accesses
system.cpu.dcache.demand_miss_rate::.switch_cpus.data     0.228627                       # miss rate for demand accesses
system.cpu.dcache.demand_miss_rate::total     0.228627                       # miss rate for demand accesses
system.cpu.dcache.overall_miss_rate::.cpu.data     0.500000                       # miss rate for overall accesses
system.cpu.dcache.overall_miss_rate::.switch_cpus.data     0.228367                       # miss rate for overall accesses
system.cpu.dcache.overall_miss_rate::total     0.228367                       # miss rate for overall accesses
system.cpu.dcache.demand_avg_miss_latency::.switch_cpus.data 68077.624343                       # average overall miss latency
system.cpu.dcache.demand_avg_miss_latency::total 68077.557333                       # average overall miss latency
system.cpu.dcache.overall_avg_miss_latency::.switch_cpus.data 68071.370612                       # average overall miss latency
system.cpu.dcache.overall_avg_miss_latency::total 68071.303614                       # average overall miss latency
system.cpu.dcache.blocked_cycles::no_mshrs      4919853                       # number of cycles access was blocked
system.cpu.dcache.blocked_cycles::no_targets            2                       # number of cycles access was blocked
system.cpu.dcache.blocked::no_mshrs            106720                       # number of cycles access was blocked
system.cpu.dcache.blocked::no_targets               1                       # number of cycles access was blocked
system.cpu.dcache.avg_blocked_cycles::no_mshrs    46.100572                       # average number of cycles each access was blocked
system.cpu.dcache.avg_blocked_cycles::no_targets            2                       # average number of cycles each access was blocked
system.cpu.dcache.writebacks::.writebacks        82846                       # number of writebacks
system.cpu.dcache.writebacks::total             82846                       # number of writebacks
system.cpu.dcache.demand_mshr_hits::.switch_cpus.data      2293842                       # number of demand (read+write) MSHR hits
system.cpu.dcache.demand_mshr_hits::total      2293842                       # number of demand (read+write) MSHR hits
system.cpu.dcache.overall_mshr_hits::.switch_cpus.data      2293842                       # number of overall MSHR hits
system.cpu.dcache.overall_mshr_hits::total      2293842                       # number of overall MSHR hits
system.cpu.dcache.demand_mshr_misses::.switch_cpus.data       753936                       # number of demand (read+write) MSHR misses
system.cpu.dcache.demand_mshr_misses::total       753936                       # number of demand (read+write) MSHR misses
system.cpu.dcache.overall_mshr_misses::.switch_cpus.data       754094                       # number of overall MSHR misses
system.cpu.dcache.overall_mshr_misses::total       754094                       # number of overall MSHR misses
system.cpu.dcache.demand_mshr_miss_latency::.switch_cpus.data  59177117768                       # number of demand (read+write) MSHR miss cycles
system.cpu.dcache.demand_mshr_miss_latency::total  59177117768                       # number of demand (read+write) MSHR miss cycles
system.cpu.dcache.overall_mshr_miss_latency::.switch_cpus.data  59184680268                       # number of overall MSHR miss cycles
system.cpu.dcache.overall_mshr_miss_latency::total  59184680268                       # number of overall MSHR miss cycles
system.cpu.dcache.demand_mshr_miss_rate::.switch_cpus.data     0.056556                       # mshr miss rate for demand accesses
system.cpu.dcache.demand_mshr_miss_rate::total     0.056556                       # mshr miss rate for demand accesses
system.cpu.dcache.overall_mshr_miss_rate::.switch_cpus.data     0.056498                       # mshr miss rate for overall accesses
system.cpu.dcache.overall_mshr_miss_rate::total     0.056498                       # mshr miss rate for overall accesses
system.cpu.dcache.demand_avg_mshr_miss_latency::.switch_cpus.data 78490.903429                       # average overall mshr miss latency
system.cpu.dcache.demand_avg_mshr_miss_latency::total 78490.903429                       # average overall mshr miss latency
system.cpu.dcache.overall_avg_mshr_miss_latency::.switch_cpus.data 78484.486374                       # average overall mshr miss latency
system.cpu.dcache.overall_avg_mshr_miss_latency::total 78484.486374                       # average overall mshr miss latency
system.cpu.dcache.replacements                 753072                       # number of replacements
system.cpu.dcache.ReadReq_hits::.cpu.data            3                       # number of ReadReq hits
system.cpu.dcache.ReadReq_hits::.switch_cpus.data      9079967                       # number of ReadReq hits
system.cpu.dcache.ReadReq_hits::total         9079970                       # number of ReadReq hits
system.cpu.dcache.ReadReq_misses::.cpu.data            2                       # number of ReadReq misses
system.cpu.dcache.ReadReq_misses::.switch_cpus.data      3001239                       # number of ReadReq misses
system.cpu.dcache.ReadReq_misses::total       3001241                       # number of ReadReq misses
system.cpu.dcache.ReadReq_miss_latency::.switch_cpus.data 203933841000                       # number of ReadReq miss cycles
system.cpu.dcache.ReadReq_miss_latency::total 203933841000                       # number of ReadReq miss cycles
system.cpu.dcache.ReadReq_accesses::.cpu.data            5                       # number of ReadReq accesses(hits+misses)
system.cpu.dcache.ReadReq_accesses::.switch_cpus.data     12081206                       # number of ReadReq accesses(hits+misses)
system.cpu.dcache.ReadReq_accesses::total     12081211                       # number of ReadReq accesses(hits+misses)
system.cpu.dcache.ReadReq_miss_rate::.cpu.data     0.400000                       # miss rate for ReadReq accesses
system.cpu.dcache.ReadReq_miss_rate::.switch_cpus.data     0.248422                       # miss rate for ReadReq accesses
system.cpu.dcache.ReadReq_miss_rate::total     0.248422                       # miss rate for ReadReq accesses
system.cpu.dcache.ReadReq_avg_miss_latency::.switch_cpus.data 67949.883698                       # average ReadReq miss latency
system.cpu.dcache.ReadReq_avg_miss_latency::total 67949.838417                       # average ReadReq miss latency
system.cpu.dcache.ReadReq_mshr_hits::.switch_cpus.data      2293609                       # number of ReadReq MSHR hits
system.cpu.dcache.ReadReq_mshr_hits::total      2293609                       # number of ReadReq MSHR hits
system.cpu.dcache.ReadReq_mshr_misses::.switch_cpus.data       707630                       # number of ReadReq MSHR misses
system.cpu.dcache.ReadReq_mshr_misses::total       707630                       # number of ReadReq MSHR misses
system.cpu.dcache.ReadReq_mshr_miss_latency::.switch_cpus.data  55682982000                       # number of ReadReq MSHR miss cycles
system.cpu.dcache.ReadReq_mshr_miss_latency::total  55682982000                       # number of ReadReq MSHR miss cycles
system.cpu.dcache.ReadReq_mshr_miss_rate::.switch_cpus.data     0.058573                       # mshr miss rate for ReadReq accesses
system.cpu.dcache.ReadReq_mshr_miss_rate::total     0.058573                       # mshr miss rate for ReadReq accesses
system.cpu.dcache.ReadReq_avg_mshr_miss_latency::.switch_cpus.data 78689.402654                       # average ReadReq mshr miss latency
system.cpu.dcache.ReadReq_avg_mshr_miss_latency::total 78689.402654                       # average ReadReq mshr miss latency
system.cpu.dcache.WriteReq_hits::.switch_cpus.data      1203054                       # number of WriteReq hits
system.cpu.dcache.WriteReq_hits::total        1203054                       # number of WriteReq hits
system.cpu.dcache.WriteReq_misses::.cpu.data            1                       # number of WriteReq misses
system.cpu.dcache.WriteReq_misses::.switch_cpus.data        46539                       # number of WriteReq misses
system.cpu.dcache.WriteReq_misses::total        46540                       # number of WriteReq misses
system.cpu.dcache.WriteReq_miss_latency::.switch_cpus.data   3551644765                       # number of WriteReq miss cycles
system.cpu.dcache.WriteReq_miss_latency::total   3551644765                       # number of WriteReq miss cycles
system.cpu.dcache.WriteReq_accesses::.cpu.data            1                       # number of WriteReq accesses(hits+misses)
system.cpu.dcache.WriteReq_accesses::.switch_cpus.data      1249593                       # number of WriteReq accesses(hits+misses)
system.cpu.dcache.WriteReq_accesses::total      1249594                       # number of WriteReq accesses(hits+misses)
system.cpu.dcache.WriteReq_miss_rate::.cpu.data            1                       # miss rate for WriteReq accesses
system.cpu.dcache.WriteReq_miss_rate::.switch_cpus.data     0.037243                       # miss rate for WriteReq accesses
system.cpu.dcache.WriteReq_miss_rate::total     0.037244                       # miss rate for WriteReq accesses
system.cpu.dcache.WriteReq_avg_miss_latency::.switch_cpus.data 76315.450805                       # average WriteReq miss latency
system.cpu.dcache.WriteReq_avg_miss_latency::total 76313.811023                       # average WriteReq miss latency
system.cpu.dcache.WriteReq_mshr_hits::.switch_cpus.data          233                       # number of WriteReq MSHR hits
system.cpu.dcache.WriteReq_mshr_hits::total          233                       # number of WriteReq MSHR hits
system.cpu.dcache.WriteReq_mshr_misses::.switch_cpus.data        46306                       # number of WriteReq MSHR misses
system.cpu.dcache.WriteReq_mshr_misses::total        46306                       # number of WriteReq MSHR misses
system.cpu.dcache.WriteReq_mshr_miss_latency::.switch_cpus.data   3494135768                       # number of WriteReq MSHR miss cycles
system.cpu.dcache.WriteReq_mshr_miss_latency::total   3494135768                       # number of WriteReq MSHR miss cycles
system.cpu.dcache.WriteReq_mshr_miss_rate::.switch_cpus.data     0.037057                       # mshr miss rate for WriteReq accesses
system.cpu.dcache.WriteReq_mshr_miss_rate::total     0.037057                       # mshr miss rate for WriteReq accesses
system.cpu.dcache.WriteReq_avg_mshr_miss_latency::.switch_cpus.data 75457.516693                       # average WriteReq mshr miss latency
system.cpu.dcache.WriteReq_avg_mshr_miss_latency::total 75457.516693                       # average WriteReq mshr miss latency
system.cpu.dcache.SoftPFReq_hits::.switch_cpus.data        16122                       # number of SoftPFReq hits
system.cpu.dcache.SoftPFReq_hits::total         16122                       # number of SoftPFReq hits
system.cpu.dcache.SoftPFReq_misses::.switch_cpus.data          280                       # number of SoftPFReq misses
system.cpu.dcache.SoftPFReq_misses::total          280                       # number of SoftPFReq misses
system.cpu.dcache.SoftPFReq_accesses::.switch_cpus.data        16402                       # number of SoftPFReq accesses(hits+misses)
system.cpu.dcache.SoftPFReq_accesses::total        16402                       # number of SoftPFReq accesses(hits+misses)
system.cpu.dcache.SoftPFReq_miss_rate::.switch_cpus.data     0.017071                       # miss rate for SoftPFReq accesses
system.cpu.dcache.SoftPFReq_miss_rate::total     0.017071                       # miss rate for SoftPFReq accesses
system.cpu.dcache.SoftPFReq_mshr_misses::.switch_cpus.data          158                       # number of SoftPFReq MSHR misses
system.cpu.dcache.SoftPFReq_mshr_misses::total          158                       # number of SoftPFReq MSHR misses
system.cpu.dcache.SoftPFReq_mshr_miss_latency::.switch_cpus.data      7562500                       # number of SoftPFReq MSHR miss cycles
system.cpu.dcache.SoftPFReq_mshr_miss_latency::total      7562500                       # number of SoftPFReq MSHR miss cycles
system.cpu.dcache.SoftPFReq_mshr_miss_rate::.switch_cpus.data     0.009633                       # mshr miss rate for SoftPFReq accesses
system.cpu.dcache.SoftPFReq_mshr_miss_rate::total     0.009633                       # mshr miss rate for SoftPFReq accesses
system.cpu.dcache.SoftPFReq_avg_mshr_miss_latency::.switch_cpus.data 47863.924051                       # average SoftPFReq mshr miss latency
system.cpu.dcache.SoftPFReq_avg_mshr_miss_latency::total 47863.924051                       # average SoftPFReq mshr miss latency
system.cpu.dcache.tags.pwrStateResidencyTicks::UNDEFINED 270804204075000                       # Cumulative time (in ticks) in various power states
system.cpu.dcache.tags.tagsinuse             0.139499                       # Cycle average of tags in use
system.cpu.dcache.tags.total_refs            11053242                       # Total number of references to valid blocks.
system.cpu.dcache.tags.sampled_refs            754096                       # Sample count of references to valid blocks.
system.cpu.dcache.tags.avg_refs             14.657606                       # Average number of references to valid blocks.
system.cpu.dcache.tags.warmup_cycle      270767280054500                       # Cycle when the warmup percentage was hit.
system.cpu.dcache.tags.occ_blocks::.cpu.data     0.000002                       # Average occupied blocks per requestor
system.cpu.dcache.tags.occ_blocks::.switch_cpus.data     0.139497                       # Average occupied blocks per requestor
system.cpu.dcache.tags.occ_percent::.cpu.data     0.000000                       # Average percentage of cache occupancy
system.cpu.dcache.tags.occ_percent::.switch_cpus.data     0.000136                       # Average percentage of cache occupancy
system.cpu.dcache.tags.occ_percent::total     0.000136                       # Average percentage of cache occupancy
system.cpu.dcache.tags.occ_task_id_blocks::1024         1024                       # Occupied blocks per task id
system.cpu.dcache.tags.age_task_id_blocks_1024::0          200                       # Occupied blocks per task id
system.cpu.dcache.tags.age_task_id_blocks_1024::1          821                       # Occupied blocks per task id
system.cpu.dcache.tags.age_task_id_blocks_1024::3            3                       # Occupied blocks per task id
system.cpu.dcache.tags.occ_task_id_percent::1024            1                       # Percentage of cache occupancy per task id
system.cpu.dcache.tags.tag_accesses          27448510                       # Number of tag accesses
system.cpu.dcache.tags.data_accesses         27448510                       # Number of data accesses

---------- End Simulation Statistics   ----------
