
---------- Begin Simulation Statistics ----------
final_tick                               136221517850500                       # Number of ticks from beginning of simulation (restored from checkpoints and never reset)
host_inst_rate                                  49734                       # Simulator instruction rate (inst/s)
host_mem_usage                                 829688                       # Number of bytes of host memory used
host_op_rate                                   101506                       # Simulator op (including micro ops) rate (op/s)
host_seconds                                   201.07                       # Real time elapsed on the host
host_tick_rate                               35467488                       # Simulator tick rate (ticks/s)
sim_freq                                 1000000000000                       # Frequency of simulated ticks
sim_insts                                    10000010                       # Number of instructions simulated
sim_ops                                      20409943                       # Number of ops (including micro ops) simulated
sim_seconds                                  0.007132                       # Number of seconds simulated
sim_ticks                                  7131529250                       # Number of ticks simulated
system.cpu.Branches                                 2                       # Number of branches fetched
system.cpu.committedInsts                           8                       # Number of instructions committed
system.cpu.committedOps                            16                       # Number of ops (including micro ops) committed
system.cpu.dtb.rdAccesses                           3                       # TLB accesses on read requests
system.cpu.dtb.rdMisses                             0                       # TLB misses on read requests
system.cpu.dtb.wrAccesses                           0                       # TLB accesses on write requests
system.cpu.dtb.wrMisses                             0                       # TLB misses on write requests
system.cpu.idle_fraction                            0                       # Percentage of idle cycles
system.cpu.itb.rdAccesses                           0                       # TLB accesses on read requests
system.cpu.itb.rdMisses                             0                       # TLB misses on read requests
system.cpu.itb.wrAccesses                          11                       # TLB accesses on write requests
system.cpu.itb.wrMisses                             0                       # TLB misses on write requests
system.cpu.not_idle_fraction                        1                       # Percentage of non-idle cycles
system.cpu.numCycles                               19                       # number of cpu cycles simulated
system.cpu.numWorkItemsCompleted                    0                       # number of work items this cpu completed
system.cpu.numWorkItemsStarted                      0                       # number of work items this cpu started
system.cpu.num_busy_cycles                         19                       # Number of busy cycles
system.cpu.num_cc_register_reads                   10                       # number of times the CC registers were read
system.cpu.num_cc_register_writes                   4                       # number of times the CC registers were written
system.cpu.num_conditional_control_insts            2                       # number of instructions that are conditional controls
system.cpu.num_fp_alu_accesses                      0                       # Number of float alu accesses
system.cpu.num_fp_insts                             0                       # number of float instructions
system.cpu.num_fp_register_reads                    0                       # number of times the floating registers were read
system.cpu.num_fp_register_writes                   0                       # number of times the floating registers were written
system.cpu.num_func_calls                           0                       # number of times a function call or return occured
system.cpu.num_idle_cycles                          0                       # Number of idle cycles
system.cpu.num_int_alu_accesses                    16                       # Number of integer alu accesses
system.cpu.num_int_insts                           16                       # number of integer instructions
system.cpu.num_int_register_reads                  33                       # number of times the integer registers were read
system.cpu.num_int_register_writes                 14                       # number of times the integer registers were written
system.cpu.num_load_insts                           3                       # Number of load instructions
system.cpu.num_mem_refs                             3                       # number of memory refs
system.cpu.num_store_insts                          0                       # Number of store instructions
system.cpu.num_vec_alu_accesses                     0                       # Number of vector alu accesses
system.cpu.num_vec_insts                            0                       # number of vector instructions
system.cpu.num_vec_register_reads                   0                       # number of times the vector registers were read
system.cpu.num_vec_register_writes                  0                       # number of times the vector registers were written
system.cpu.op_class::No_OpClass                     0      0.00%      0.00% # Class of executed instruction
system.cpu.op_class::IntAlu                        13     81.25%     81.25% # Class of executed instruction
system.cpu.op_class::IntMult                        0      0.00%     81.25% # Class of executed instruction
system.cpu.op_class::IntDiv                         0      0.00%     81.25% # Class of executed instruction
system.cpu.op_class::FloatAdd                       0      0.00%     81.25% # Class of executed instruction
system.cpu.op_class::FloatCmp                       0      0.00%     81.25% # Class of executed instruction
system.cpu.op_class::FloatCvt                       0      0.00%     81.25% # Class of executed instruction
system.cpu.op_class::FloatMult                      0      0.00%     81.25% # Class of executed instruction
system.cpu.op_class::FloatMultAcc                   0      0.00%     81.25% # Class of executed instruction
system.cpu.op_class::FloatDiv                       0      0.00%     81.25% # Class of executed instruction
system.cpu.op_class::FloatMisc                      0      0.00%     81.25% # Class of executed instruction
system.cpu.op_class::FloatSqrt                      0      0.00%     81.25% # Class of executed instruction
system.cpu.op_class::SimdAdd                        0      0.00%     81.25% # Class of executed instruction
system.cpu.op_class::SimdAddAcc                     0      0.00%     81.25% # Class of executed instruction
system.cpu.op_class::SimdAlu                        0      0.00%     81.25% # Class of executed instruction
system.cpu.op_class::SimdCmp                        0      0.00%     81.25% # Class of executed instruction
system.cpu.op_class::SimdCvt                        0      0.00%     81.25% # Class of executed instruction
system.cpu.op_class::SimdMisc                       0      0.00%     81.25% # Class of executed instruction
system.cpu.op_class::SimdMult                       0      0.00%     81.25% # Class of executed instruction
system.cpu.op_class::SimdMultAcc                    0      0.00%     81.25% # Class of executed instruction
system.cpu.op_class::SimdShift                      0      0.00%     81.25% # Class of executed instruction
system.cpu.op_class::SimdShiftAcc                   0      0.00%     81.25% # Class of executed instruction
system.cpu.op_class::SimdDiv                        0      0.00%     81.25% # Class of executed instruction
system.cpu.op_class::SimdSqrt                       0      0.00%     81.25% # Class of executed instruction
system.cpu.op_class::SimdFloatAdd                   0      0.00%     81.25% # Class of executed instruction
system.cpu.op_class::SimdFloatAlu                   0      0.00%     81.25% # Class of executed instruction
system.cpu.op_class::SimdFloatCmp                   0      0.00%     81.25% # Class of executed instruction
system.cpu.op_class::SimdFloatCvt                   0      0.00%     81.25% # Class of executed instruction
system.cpu.op_class::SimdFloatDiv                   0      0.00%     81.25% # Class of executed instruction
system.cpu.op_class::SimdFloatMisc                  0      0.00%     81.25% # Class of executed instruction
system.cpu.op_class::SimdFloatMult                  0      0.00%     81.25% # Class of executed instruction
system.cpu.op_class::SimdFloatMultAcc               0      0.00%     81.25% # Class of executed instruction
system.cpu.op_class::SimdFloatSqrt                  0      0.00%     81.25% # Class of executed instruction
system.cpu.op_class::SimdReduceAdd                  0      0.00%     81.25% # Class of executed instruction
system.cpu.op_class::SimdReduceAlu                  0      0.00%     81.25% # Class of executed instruction
system.cpu.op_class::SimdReduceCmp                  0      0.00%     81.25% # Class of executed instruction
system.cpu.op_class::SimdFloatReduceAdd             0      0.00%     81.25% # Class of executed instruction
system.cpu.op_class::SimdFloatReduceCmp             0      0.00%     81.25% # Class of executed instruction
system.cpu.op_class::SimdAes                        0      0.00%     81.25% # Class of executed instruction
system.cpu.op_class::SimdAesMix                     0      0.00%     81.25% # Class of executed instruction
system.cpu.op_class::SimdSha1Hash                   0      0.00%     81.25% # Class of executed instruction
system.cpu.op_class::SimdSha1Hash2                  0      0.00%     81.25% # Class of executed instruction
system.cpu.op_class::SimdSha256Hash                 0      0.00%     81.25% # Class of executed instruction
system.cpu.op_class::SimdSha256Hash2                0      0.00%     81.25% # Class of executed instruction
system.cpu.op_class::SimdShaSigma2                  0      0.00%     81.25% # Class of executed instruction
system.cpu.op_class::SimdShaSigma3                  0      0.00%     81.25% # Class of executed instruction
system.cpu.op_class::SimdPredAlu                    0      0.00%     81.25% # Class of executed instruction
system.cpu.op_class::MemRead                        3     18.75%    100.00% # Class of executed instruction
system.cpu.op_class::MemWrite                       0      0.00%    100.00% # Class of executed instruction
system.cpu.op_class::FloatMemRead                   0      0.00%    100.00% # Class of executed instruction
system.cpu.op_class::FloatMemWrite                  0      0.00%    100.00% # Class of executed instruction
system.cpu.op_class::IprAccess                      0      0.00%    100.00% # Class of executed instruction
system.cpu.op_class::InstPrefetch                   0      0.00%    100.00% # Class of executed instruction
system.cpu.op_class::total                         16                       # Class of executed instruction
system.cpu.workload.numSyscalls                     0                       # Number of system calls
system.membus.snoop_filter.hit_multi_requests            0                       # Number of requests hitting in the snoop filter with multiple (>1) holders of the requested data.
system.membus.snoop_filter.hit_multi_snoops            0                       # Number of snoops hitting in the snoop filter with multiple (>1) holders of the requested data.
system.membus.snoop_filter.hit_single_requests        89345                       # Number of requests hitting in the snoop filter with a single holder of the requested data.
system.membus.snoop_filter.hit_single_snoops            0                       # Number of snoops hitting in the snoop filter with a single holder of the requested data.
system.membus.snoop_filter.tot_requests        183010                       # Total number of requests made to the snoop filter.
system.membus.snoop_filter.tot_snoops               0                       # Total number of snoops made to the snoop filter.
system.switch_cpus.branchPred.BTBCorrect            0                       # Number of correct BTB predictions (this stat may not work properly.
system.switch_cpus.branchPred.BTBHitPct      0.000000                       # BTB Hit Percentage
system.switch_cpus.branchPred.BTBHits               0                       # Number of BTB hits
system.switch_cpus.branchPred.BTBLookups      2385855                       # Number of BTB lookups
system.switch_cpus.branchPred.RASInCorrect            1                       # Number of incorrect RAS predictions.
system.switch_cpus.branchPred.condIncorrect          211                       # Number of conditional branches incorrect
system.switch_cpus.branchPred.condPredicted      2603656                       # Number of conditional branches predicted
system.switch_cpus.branchPred.indirectHits       410965                       # Number of indirect target hits.
system.switch_cpus.branchPred.indirectLookups      2385855                       # Number of indirect predictor lookups.
system.switch_cpus.branchPred.indirectMisses      1974890                       # Number of indirect misses.
system.switch_cpus.branchPred.lookups         2603825                       # Number of BP lookups
system.switch_cpus.branchPred.usedRAS              96                       # Number of times the RAS was used to get a target.
system.switch_cpus.branchPredindirectMispredicted          144                       # Number of mispredicted indirect branches.
system.switch_cpus.cc_regfile_reads          13013883                       # number of cc regfile reads
system.switch_cpus.cc_regfile_writes          6028181                       # number of cc regfile writes
system.switch_cpus.commit.amos                      0                       # Number of atomic instructions committed
system.switch_cpus.commit.branchMispredicts          215                       # The number of times a branch was mispredicted
system.switch_cpus.commit.branches            2602496                       # Number of branches committed
system.switch_cpus.commit.bw_lim_events       2361375                       # number cycles where commit BW limit reached
system.switch_cpus.commit.commitSquashedInsts         7641                       # The number of squashed insts skipped by commit
system.switch_cpus.commit.committedInsts     10000002                       # Number of instructions committed
system.switch_cpus.commit.committedOps       20409927                       # Number of ops (including micro ops) committed
system.switch_cpus.commit.committed_per_cycle::samples     14258080                       # Number of insts commited each cycle
system.switch_cpus.commit.committed_per_cycle::mean     1.431464                       # Number of insts commited each cycle
system.switch_cpus.commit.committed_per_cycle::stdev     2.999693                       # Number of insts commited each cycle
system.switch_cpus.commit.committed_per_cycle::underflows            0      0.00%      0.00% # Number of insts commited each cycle
system.switch_cpus.commit.committed_per_cycle::0     11342895     79.55%     79.55% # Number of insts commited each cycle
system.switch_cpus.commit.committed_per_cycle::1       250266      1.76%     81.31% # Number of insts commited each cycle
system.switch_cpus.commit.committed_per_cycle::2         8416      0.06%     81.37% # Number of insts commited each cycle
system.switch_cpus.commit.committed_per_cycle::3       175592      1.23%     82.60% # Number of insts commited each cycle
system.switch_cpus.commit.committed_per_cycle::4        11675      0.08%     82.68% # Number of insts commited each cycle
system.switch_cpus.commit.committed_per_cycle::5        22536      0.16%     82.84% # Number of insts commited each cycle
system.switch_cpus.commit.committed_per_cycle::6        31602      0.22%     83.06% # Number of insts commited each cycle
system.switch_cpus.commit.committed_per_cycle::7        53723      0.38%     83.44% # Number of insts commited each cycle
system.switch_cpus.commit.committed_per_cycle::8      2361375     16.56%    100.00% # Number of insts commited each cycle
system.switch_cpus.commit.committed_per_cycle::overflows            0      0.00%    100.00% # Number of insts commited each cycle
system.switch_cpus.commit.committed_per_cycle::min_value            0                       # Number of insts commited each cycle
system.switch_cpus.commit.committed_per_cycle::max_value            8                       # Number of insts commited each cycle
system.switch_cpus.commit.committed_per_cycle::total     14258080                       # Number of insts commited each cycle
system.switch_cpus.commit.fp_insts                  0                       # Number of committed floating point instructions.
system.switch_cpus.commit.function_calls           10                       # Number of function calls committed.
system.switch_cpus.commit.int_insts          20409909                       # Number of committed integer instructions.
system.switch_cpus.commit.loads               4520346                       # Number of loads committed
system.switch_cpus.commit.membars                   0                       # Number of memory barriers committed
system.switch_cpus.commit.op_class_0::No_OpClass           18      0.00%      0.00% # Class of committed instruction
system.switch_cpus.commit.op_class_0::IntAlu     15752357     77.18%     77.18% # Class of committed instruction
system.switch_cpus.commit.op_class_0::IntMult            0      0.00%     77.18% # Class of committed instruction
system.switch_cpus.commit.op_class_0::IntDiv            0      0.00%     77.18% # Class of committed instruction
system.switch_cpus.commit.op_class_0::FloatAdd            0      0.00%     77.18% # Class of committed instruction
system.switch_cpus.commit.op_class_0::FloatCmp            0      0.00%     77.18% # Class of committed instruction
system.switch_cpus.commit.op_class_0::FloatCvt            0      0.00%     77.18% # Class of committed instruction
system.switch_cpus.commit.op_class_0::FloatMult            0      0.00%     77.18% # Class of committed instruction
system.switch_cpus.commit.op_class_0::FloatMultAcc            0      0.00%     77.18% # Class of committed instruction
system.switch_cpus.commit.op_class_0::FloatDiv            0      0.00%     77.18% # Class of committed instruction
system.switch_cpus.commit.op_class_0::FloatMisc            0      0.00%     77.18% # Class of committed instruction
system.switch_cpus.commit.op_class_0::FloatSqrt            0      0.00%     77.18% # Class of committed instruction
system.switch_cpus.commit.op_class_0::SimdAdd            0      0.00%     77.18% # Class of committed instruction
system.switch_cpus.commit.op_class_0::SimdAddAcc            0      0.00%     77.18% # Class of committed instruction
system.switch_cpus.commit.op_class_0::SimdAlu            0      0.00%     77.18% # Class of committed instruction
system.switch_cpus.commit.op_class_0::SimdCmp            0      0.00%     77.18% # Class of committed instruction
system.switch_cpus.commit.op_class_0::SimdCvt            0      0.00%     77.18% # Class of committed instruction
system.switch_cpus.commit.op_class_0::SimdMisc            0      0.00%     77.18% # Class of committed instruction
system.switch_cpus.commit.op_class_0::SimdMult            0      0.00%     77.18% # Class of committed instruction
system.switch_cpus.commit.op_class_0::SimdMultAcc            0      0.00%     77.18% # Class of committed instruction
system.switch_cpus.commit.op_class_0::SimdShift            0      0.00%     77.18% # Class of committed instruction
system.switch_cpus.commit.op_class_0::SimdShiftAcc            0      0.00%     77.18% # Class of committed instruction
system.switch_cpus.commit.op_class_0::SimdDiv            0      0.00%     77.18% # Class of committed instruction
system.switch_cpus.commit.op_class_0::SimdSqrt            0      0.00%     77.18% # Class of committed instruction
system.switch_cpus.commit.op_class_0::SimdFloatAdd            0      0.00%     77.18% # Class of committed instruction
system.switch_cpus.commit.op_class_0::SimdFloatAlu            0      0.00%     77.18% # Class of committed instruction
system.switch_cpus.commit.op_class_0::SimdFloatCmp            0      0.00%     77.18% # Class of committed instruction
system.switch_cpus.commit.op_class_0::SimdFloatCvt            0      0.00%     77.18% # Class of committed instruction
system.switch_cpus.commit.op_class_0::SimdFloatDiv            0      0.00%     77.18% # Class of committed instruction
system.switch_cpus.commit.op_class_0::SimdFloatMisc            0      0.00%     77.18% # Class of committed instruction
system.switch_cpus.commit.op_class_0::SimdFloatMult            0      0.00%     77.18% # Class of committed instruction
system.switch_cpus.commit.op_class_0::SimdFloatMultAcc            0      0.00%     77.18% # Class of committed instruction
system.switch_cpus.commit.op_class_0::SimdFloatSqrt            0      0.00%     77.18% # Class of committed instruction
system.switch_cpus.commit.op_class_0::SimdReduceAdd            0      0.00%     77.18% # Class of committed instruction
system.switch_cpus.commit.op_class_0::SimdReduceAlu            0      0.00%     77.18% # Class of committed instruction
system.switch_cpus.commit.op_class_0::SimdReduceCmp            0      0.00%     77.18% # Class of committed instruction
system.switch_cpus.commit.op_class_0::SimdFloatReduceAdd            0      0.00%     77.18% # Class of committed instruction
system.switch_cpus.commit.op_class_0::SimdFloatReduceCmp            0      0.00%     77.18% # Class of committed instruction
system.switch_cpus.commit.op_class_0::SimdAes            0      0.00%     77.18% # Class of committed instruction
system.switch_cpus.commit.op_class_0::SimdAesMix            0      0.00%     77.18% # Class of committed instruction
system.switch_cpus.commit.op_class_0::SimdSha1Hash            0      0.00%     77.18% # Class of committed instruction
system.switch_cpus.commit.op_class_0::SimdSha1Hash2            0      0.00%     77.18% # Class of committed instruction
system.switch_cpus.commit.op_class_0::SimdSha256Hash            0      0.00%     77.18% # Class of committed instruction
system.switch_cpus.commit.op_class_0::SimdSha256Hash2            0      0.00%     77.18% # Class of committed instruction
system.switch_cpus.commit.op_class_0::SimdShaSigma2            0      0.00%     77.18% # Class of committed instruction
system.switch_cpus.commit.op_class_0::SimdShaSigma3            0      0.00%     77.18% # Class of committed instruction
system.switch_cpus.commit.op_class_0::SimdPredAlu            0      0.00%     77.18% # Class of committed instruction
system.switch_cpus.commit.op_class_0::MemRead      4520346     22.15%     99.33% # Class of committed instruction
system.switch_cpus.commit.op_class_0::MemWrite       137206      0.67%    100.00% # Class of committed instruction
system.switch_cpus.commit.op_class_0::FloatMemRead            0      0.00%    100.00% # Class of committed instruction
system.switch_cpus.commit.op_class_0::FloatMemWrite            0      0.00%    100.00% # Class of committed instruction
system.switch_cpus.commit.op_class_0::IprAccess            0      0.00%    100.00% # Class of committed instruction
system.switch_cpus.commit.op_class_0::InstPrefetch            0      0.00%    100.00% # Class of committed instruction
system.switch_cpus.commit.op_class_0::total     20409927                       # Class of committed instruction
system.switch_cpus.commit.refs                4657552                       # Number of memory references committed
system.switch_cpus.commit.swp_count                 0                       # Number of s/w prefetches committed
system.switch_cpus.commit.vec_insts                 0                       # Number of committed Vector instructions.
system.switch_cpus.committedInsts            10000002                       # Number of Instructions Simulated
system.switch_cpus.committedOps              20409927                       # Number of Ops (including micro ops) Simulated
system.switch_cpus.cpi                       1.426304                       # CPI: Cycles Per Instruction
system.switch_cpus.cpi_total                 1.426304                       # CPI: Total CPI of All Threads
system.switch_cpus.decode.BlockedCycles      10683488                       # Number of cycles decode is blocked
system.switch_cpus.decode.DecodedInsts       20420157                       # Number of instructions handled by decode
system.switch_cpus.decode.IdleCycles           621509                       # Number of cycles decode is idle
system.switch_cpus.decode.RunCycles           2743981                       # Number of cycles decode is running
system.switch_cpus.decode.SquashCycles            251                       # Number of cycles decode is squashing
system.switch_cpus.decode.UnblockCycles        210102                       # Number of cycles decode is unblocking
system.switch_cpus.dtb.rdAccesses             4521789                       # TLB accesses on read requests
system.switch_cpus.dtb.rdMisses                  1702                       # TLB misses on read requests
system.switch_cpus.dtb.wrAccesses              137434                       # TLB accesses on write requests
system.switch_cpus.dtb.wrMisses                     8                       # TLB misses on write requests
system.switch_cpus.fetch.Branches             2603825                       # Number of branches that fetch encountered
system.switch_cpus.fetch.CacheLines            822820                       # Number of cache lines fetched
system.switch_cpus.fetch.Cycles              13434541                       # Number of cycles fetch has run and was not squashing or blocked
system.switch_cpus.fetch.IcacheSquashes            63                       # Number of outstanding Icache misses that were squashed
system.switch_cpus.fetch.Insts               10008136                       # Number of instructions fetch has processed
system.switch_cpus.fetch.MiscStallCycles            4                       # Number of cycles fetch has spent waiting on interrupts, or bad addresses, or out of MSHRs
system.switch_cpus.fetch.PendingTrapStallCycles          340                       # Number of stall cycles due to pending traps
system.switch_cpus.fetch.SquashCycles             502                       # Number of cycles fetch has spent squashing
system.switch_cpus.fetch.branchRate          0.182558                       # Number of branch fetches per cycle
system.switch_cpus.fetch.icacheStallCycles       824215                       # Number of cycles fetch is stalled on an Icache miss
system.switch_cpus.fetch.predictedBranches       411061                       # Number of branches that fetch has predicted taken
system.switch_cpus.fetch.rate                0.701683                       # Number of inst fetches per cycle
system.switch_cpus.fetch.rateDist::samples     14259351                       # Number of instructions fetched each cycle (Total)
system.switch_cpus.fetch.rateDist::mean      1.432266                       # Number of instructions fetched each cycle (Total)
system.switch_cpus.fetch.rateDist::stdev     2.933109                       # Number of instructions fetched each cycle (Total)
system.switch_cpus.fetch.rateDist::underflows            0      0.00%      0.00% # Number of instructions fetched each cycle (Total)
system.switch_cpus.fetch.rateDist::0         11084179     77.73%     77.73% # Number of instructions fetched each cycle (Total)
system.switch_cpus.fetch.rateDist::1           405538      2.84%     80.58% # Number of instructions fetched each cycle (Total)
system.switch_cpus.fetch.rateDist::2             1919      0.01%     80.59% # Number of instructions fetched each cycle (Total)
system.switch_cpus.fetch.rateDist::3           132417      0.93%     81.52% # Number of instructions fetched each cycle (Total)
system.switch_cpus.fetch.rateDist::4           281612      1.97%     83.49% # Number of instructions fetched each cycle (Total)
system.switch_cpus.fetch.rateDist::5            42623      0.30%     83.79% # Number of instructions fetched each cycle (Total)
system.switch_cpus.fetch.rateDist::6             7354      0.05%     83.84% # Number of instructions fetched each cycle (Total)
system.switch_cpus.fetch.rateDist::7           196803      1.38%     85.22% # Number of instructions fetched each cycle (Total)
system.switch_cpus.fetch.rateDist::8          2106906     14.78%    100.00% # Number of instructions fetched each cycle (Total)
system.switch_cpus.fetch.rateDist::overflows            0      0.00%    100.00% # Number of instructions fetched each cycle (Total)
system.switch_cpus.fetch.rateDist::min_value            0                       # Number of instructions fetched each cycle (Total)
system.switch_cpus.fetch.rateDist::max_value            8                       # Number of instructions fetched each cycle (Total)
system.switch_cpus.fetch.rateDist::total     14259351                       # Number of instructions fetched each cycle (Total)
system.switch_cpus.fp_regfile_writes               56                       # number of floating regfile writes
system.switch_cpus.idleCycles                    3687                       # Total number of cycles that the CPU has spent unscheduled due to idling
system.switch_cpus.iew.branchMispredicts          297                       # Number of branch mispredicts detected at execute
system.switch_cpus.iew.exec_branches          2602787                       # Number of branches executed
system.switch_cpus.iew.exec_nop                     0                       # number of nop insts executed
system.switch_cpus.iew.exec_rate             1.431333                       # Inst execution rate
system.switch_cpus.iew.exec_refs              4659288                       # number of memory reference insts executed
system.switch_cpus.iew.exec_stores             137434                       # Number of stores executed
system.switch_cpus.iew.exec_swp                     0                       # number of swp insts executed
system.switch_cpus.iew.iewBlockCycles            2711                       # Number of cycles IEW is blocking
system.switch_cpus.iew.iewDispLoadInsts       4522199                       # Number of dispatched load instructions
system.switch_cpus.iew.iewDispNonSpecInsts            0                       # Number of dispatched non-speculative instructions
system.switch_cpus.iew.iewDispSquashedInsts            0                       # Number of squashed instructions skipped by dispatch
system.switch_cpus.iew.iewDispStoreInsts       137682                       # Number of dispatched store instructions
system.switch_cpus.iew.iewDispatchedInsts     20417647                       # Number of instructions dispatched to IQ
system.switch_cpus.iew.iewExecLoadInsts       4521854                       # Number of load instructions executed
system.switch_cpus.iew.iewExecSquashedInsts          391                       # Number of squashed instructions skipped in execute
system.switch_cpus.iew.iewExecutedInsts      20415152                       # Number of executed instructions
system.switch_cpus.iew.iewIQFullEvents             36                       # Number of times the IQ has become full, causing a stall
system.switch_cpus.iew.iewIdleCycles                0                       # Number of cycles IEW is idle
system.switch_cpus.iew.iewLSQFullEvents        350028                       # Number of times the LSQ has become full, causing a stall
system.switch_cpus.iew.iewSquashCycles            251                       # Number of cycles IEW is squashing
system.switch_cpus.iew.iewUnblockCycles        350065                       # Number of cycles IEW is unblocking
system.switch_cpus.iew.lsq.thread0.blockedLoads            0                       # Number of blocked loads due to partial load-store forwarding
system.switch_cpus.iew.lsq.thread0.cacheBlocked           12                       # Number of times an access to memory failed due to the cache being blocked
system.switch_cpus.iew.lsq.thread0.forwLoads          167                       # Number of loads that had data forwarded from stores
system.switch_cpus.iew.lsq.thread0.ignoredResponses            2                       # Number of memory responses ignored because the instruction is squashed
system.switch_cpus.iew.lsq.thread0.invAddrLoads            0                       # Number of loads ignored due to an invalid address
system.switch_cpus.iew.lsq.thread0.invAddrSwpfs            0                       # Number of software prefetches ignored due to an invalid address
system.switch_cpus.iew.lsq.thread0.memOrderViolation           39                       # Number of memory ordering violations
system.switch_cpus.iew.lsq.thread0.rescheduledLoads            4                       # Number of loads that were rescheduled
system.switch_cpus.iew.lsq.thread0.squashedLoads         1828                       # Number of loads squashed
system.switch_cpus.iew.lsq.thread0.squashedStores          475                       # Number of stores squashed
system.switch_cpus.iew.memOrderViolationEvents           39                       # Number of memory order violations
system.switch_cpus.iew.predictedNotTakenIncorrect          269                       # Number of branches that were predicted not taken incorrectly
system.switch_cpus.iew.predictedTakenIncorrect           28                       # Number of branches that were predicted taken incorrectly
system.switch_cpus.iew.wb_consumers          24622711                       # num instructions consuming a value
system.switch_cpus.iew.wb_count              20414640                       # cumulative count of insts written-back
system.switch_cpus.iew.wb_fanout             0.699789                       # average fanout of values written-back
system.switch_cpus.iew.wb_producers          17230713                       # num instructions producing a value
system.switch_cpus.iew.wb_rate               1.431297                       # insts written-back per cycle
system.switch_cpus.iew.wb_sent               20414758                       # cumulative count of insts sent to commit
system.switch_cpus.int_regfile_reads         36033740                       # number of integer regfile reads
system.switch_cpus.int_regfile_writes        17674442                       # number of integer regfile writes
system.switch_cpus.ipc                       0.701113                       # IPC: Instructions Per Cycle
system.switch_cpus.ipc_total                 0.701113                       # IPC: Total IPC of All Threads
system.switch_cpus.iq.FU_type_0::No_OpClass          150      0.00%      0.00% # Type of FU issued
system.switch_cpus.iq.FU_type_0::IntAlu      15755965     77.18%     77.18% # Type of FU issued
system.switch_cpus.iq.FU_type_0::IntMult            0      0.00%     77.18% # Type of FU issued
system.switch_cpus.iq.FU_type_0::IntDiv             0      0.00%     77.18% # Type of FU issued
system.switch_cpus.iq.FU_type_0::FloatAdd            0      0.00%     77.18% # Type of FU issued
system.switch_cpus.iq.FU_type_0::FloatCmp            0      0.00%     77.18% # Type of FU issued
system.switch_cpus.iq.FU_type_0::FloatCvt            0      0.00%     77.18% # Type of FU issued
system.switch_cpus.iq.FU_type_0::FloatMult            0      0.00%     77.18% # Type of FU issued
system.switch_cpus.iq.FU_type_0::FloatMultAcc            0      0.00%     77.18% # Type of FU issued
system.switch_cpus.iq.FU_type_0::FloatDiv            0      0.00%     77.18% # Type of FU issued
system.switch_cpus.iq.FU_type_0::FloatMisc            0      0.00%     77.18% # Type of FU issued
system.switch_cpus.iq.FU_type_0::FloatSqrt            0      0.00%     77.18% # Type of FU issued
system.switch_cpus.iq.FU_type_0::SimdAdd            0      0.00%     77.18% # Type of FU issued
system.switch_cpus.iq.FU_type_0::SimdAddAcc            0      0.00%     77.18% # Type of FU issued
system.switch_cpus.iq.FU_type_0::SimdAlu            0      0.00%     77.18% # Type of FU issued
system.switch_cpus.iq.FU_type_0::SimdCmp            0      0.00%     77.18% # Type of FU issued
system.switch_cpus.iq.FU_type_0::SimdCvt            0      0.00%     77.18% # Type of FU issued
system.switch_cpus.iq.FU_type_0::SimdMisc            0      0.00%     77.18% # Type of FU issued
system.switch_cpus.iq.FU_type_0::SimdMult            0      0.00%     77.18% # Type of FU issued
system.switch_cpus.iq.FU_type_0::SimdMultAcc            0      0.00%     77.18% # Type of FU issued
system.switch_cpus.iq.FU_type_0::SimdShift            0      0.00%     77.18% # Type of FU issued
system.switch_cpus.iq.FU_type_0::SimdShiftAcc            0      0.00%     77.18% # Type of FU issued
system.switch_cpus.iq.FU_type_0::SimdDiv            0      0.00%     77.18% # Type of FU issued
system.switch_cpus.iq.FU_type_0::SimdSqrt            0      0.00%     77.18% # Type of FU issued
system.switch_cpus.iq.FU_type_0::SimdFloatAdd            0      0.00%     77.18% # Type of FU issued
system.switch_cpus.iq.FU_type_0::SimdFloatAlu            0      0.00%     77.18% # Type of FU issued
system.switch_cpus.iq.FU_type_0::SimdFloatCmp            0      0.00%     77.18% # Type of FU issued
system.switch_cpus.iq.FU_type_0::SimdFloatCvt            0      0.00%     77.18% # Type of FU issued
system.switch_cpus.iq.FU_type_0::SimdFloatDiv            0      0.00%     77.18% # Type of FU issued
system.switch_cpus.iq.FU_type_0::SimdFloatMisc            0      0.00%     77.18% # Type of FU issued
system.switch_cpus.iq.FU_type_0::SimdFloatMult            0      0.00%     77.18% # Type of FU issued
system.switch_cpus.iq.FU_type_0::SimdFloatMultAcc            0      0.00%     77.18% # Type of FU issued
system.switch_cpus.iq.FU_type_0::SimdFloatSqrt            0      0.00%     77.18% # Type of FU issued
system.switch_cpus.iq.FU_type_0::SimdReduceAdd            0      0.00%     77.18% # Type of FU issued
system.switch_cpus.iq.FU_type_0::SimdReduceAlu            0      0.00%     77.18% # Type of FU issued
system.switch_cpus.iq.FU_type_0::SimdReduceCmp            0      0.00%     77.18% # Type of FU issued
system.switch_cpus.iq.FU_type_0::SimdFloatReduceAdd            0      0.00%     77.18% # Type of FU issued
system.switch_cpus.iq.FU_type_0::SimdFloatReduceCmp            0      0.00%     77.18% # Type of FU issued
system.switch_cpus.iq.FU_type_0::SimdAes            0      0.00%     77.18% # Type of FU issued
system.switch_cpus.iq.FU_type_0::SimdAesMix            0      0.00%     77.18% # Type of FU issued
system.switch_cpus.iq.FU_type_0::SimdSha1Hash            0      0.00%     77.18% # Type of FU issued
system.switch_cpus.iq.FU_type_0::SimdSha1Hash2            0      0.00%     77.18% # Type of FU issued
system.switch_cpus.iq.FU_type_0::SimdSha256Hash            0      0.00%     77.18% # Type of FU issued
system.switch_cpus.iq.FU_type_0::SimdSha256Hash2            0      0.00%     77.18% # Type of FU issued
system.switch_cpus.iq.FU_type_0::SimdShaSigma2            0      0.00%     77.18% # Type of FU issued
system.switch_cpus.iq.FU_type_0::SimdShaSigma3            0      0.00%     77.18% # Type of FU issued
system.switch_cpus.iq.FU_type_0::SimdPredAlu            0      0.00%     77.18% # Type of FU issued
system.switch_cpus.iq.FU_type_0::MemRead      4521966     22.15%     99.33% # Type of FU issued
system.switch_cpus.iq.FU_type_0::MemWrite       137466      0.67%    100.00% # Type of FU issued
system.switch_cpus.iq.FU_type_0::FloatMemRead            0      0.00%    100.00% # Type of FU issued
system.switch_cpus.iq.FU_type_0::FloatMemWrite            0      0.00%    100.00% # Type of FU issued
system.switch_cpus.iq.FU_type_0::IprAccess            0      0.00%    100.00% # Type of FU issued
system.switch_cpus.iq.FU_type_0::InstPrefetch            0      0.00%    100.00% # Type of FU issued
system.switch_cpus.iq.FU_type_0::total       20415547                       # Type of FU issued
system.switch_cpus.iq.fp_alu_accesses               0                       # Number of floating point alu accesses
system.switch_cpus.iq.fp_inst_queue_reads            0                       # Number of floating instruction queue reads
system.switch_cpus.iq.fp_inst_queue_wakeup_accesses            0                       # Number of floating instruction queue wakeup accesses
system.switch_cpus.iq.fp_inst_queue_writes            0                       # Number of floating instruction queue writes
system.switch_cpus.iq.fu_busy_cnt              339057                       # FU busy when requested
system.switch_cpus.iq.fu_busy_rate           0.016608                       # FU busy rate (busy events/executed inst)
system.switch_cpus.iq.fu_full::No_OpClass            0      0.00%      0.00% # attempts to use FU when none available
system.switch_cpus.iq.fu_full::IntAlu          338998     99.98%     99.98% # attempts to use FU when none available
system.switch_cpus.iq.fu_full::IntMult              0      0.00%     99.98% # attempts to use FU when none available
system.switch_cpus.iq.fu_full::IntDiv               0      0.00%     99.98% # attempts to use FU when none available
system.switch_cpus.iq.fu_full::FloatAdd             0      0.00%     99.98% # attempts to use FU when none available
system.switch_cpus.iq.fu_full::FloatCmp             0      0.00%     99.98% # attempts to use FU when none available
system.switch_cpus.iq.fu_full::FloatCvt             0      0.00%     99.98% # attempts to use FU when none available
system.switch_cpus.iq.fu_full::FloatMult            0      0.00%     99.98% # attempts to use FU when none available
system.switch_cpus.iq.fu_full::FloatMultAcc            0      0.00%     99.98% # attempts to use FU when none available
system.switch_cpus.iq.fu_full::FloatDiv             0      0.00%     99.98% # attempts to use FU when none available
system.switch_cpus.iq.fu_full::FloatMisc            0      0.00%     99.98% # attempts to use FU when none available
system.switch_cpus.iq.fu_full::FloatSqrt            0      0.00%     99.98% # attempts to use FU when none available
system.switch_cpus.iq.fu_full::SimdAdd              0      0.00%     99.98% # attempts to use FU when none available
system.switch_cpus.iq.fu_full::SimdAddAcc            0      0.00%     99.98% # attempts to use FU when none available
system.switch_cpus.iq.fu_full::SimdAlu              0      0.00%     99.98% # attempts to use FU when none available
system.switch_cpus.iq.fu_full::SimdCmp              0      0.00%     99.98% # attempts to use FU when none available
system.switch_cpus.iq.fu_full::SimdCvt              0      0.00%     99.98% # attempts to use FU when none available
system.switch_cpus.iq.fu_full::SimdMisc             0      0.00%     99.98% # attempts to use FU when none available
system.switch_cpus.iq.fu_full::SimdMult             0      0.00%     99.98% # attempts to use FU when none available
system.switch_cpus.iq.fu_full::SimdMultAcc            0      0.00%     99.98% # attempts to use FU when none available
system.switch_cpus.iq.fu_full::SimdShift            0      0.00%     99.98% # attempts to use FU when none available
system.switch_cpus.iq.fu_full::SimdShiftAcc            0      0.00%     99.98% # attempts to use FU when none available
system.switch_cpus.iq.fu_full::SimdDiv              0      0.00%     99.98% # attempts to use FU when none available
system.switch_cpus.iq.fu_full::SimdSqrt             0      0.00%     99.98% # attempts to use FU when none available
system.switch_cpus.iq.fu_full::SimdFloatAdd            0      0.00%     99.98% # attempts to use FU when none available
system.switch_cpus.iq.fu_full::SimdFloatAlu            0      0.00%     99.98% # attempts to use FU when none available
system.switch_cpus.iq.fu_full::SimdFloatCmp            0      0.00%     99.98% # attempts to use FU when none available
system.switch_cpus.iq.fu_full::SimdFloatCvt            0      0.00%     99.98% # attempts to use FU when none available
system.switch_cpus.iq.fu_full::SimdFloatDiv            0      0.00%     99.98% # attempts to use FU when none available
system.switch_cpus.iq.fu_full::SimdFloatMisc            0      0.00%     99.98% # attempts to use FU when none available
system.switch_cpus.iq.fu_full::SimdFloatMult            0      0.00%     99.98% # attempts to use FU when none available
system.switch_cpus.iq.fu_full::SimdFloatMultAcc            0      0.00%     99.98% # attempts to use FU when none available
system.switch_cpus.iq.fu_full::SimdFloatSqrt            0      0.00%     99.98% # attempts to use FU when none available
system.switch_cpus.iq.fu_full::SimdReduceAdd            0      0.00%     99.98% # attempts to use FU when none available
system.switch_cpus.iq.fu_full::SimdReduceAlu            0      0.00%     99.98% # attempts to use FU when none available
system.switch_cpus.iq.fu_full::SimdReduceCmp            0      0.00%     99.98% # attempts to use FU when none available
system.switch_cpus.iq.fu_full::SimdFloatReduceAdd            0      0.00%     99.98% # attempts to use FU when none available
system.switch_cpus.iq.fu_full::SimdFloatReduceCmp            0      0.00%     99.98% # attempts to use FU when none available
system.switch_cpus.iq.fu_full::SimdAes              0      0.00%     99.98% # attempts to use FU when none available
system.switch_cpus.iq.fu_full::SimdAesMix            0      0.00%     99.98% # attempts to use FU when none available
system.switch_cpus.iq.fu_full::SimdSha1Hash            0      0.00%     99.98% # attempts to use FU when none available
system.switch_cpus.iq.fu_full::SimdSha1Hash2            0      0.00%     99.98% # attempts to use FU when none available
system.switch_cpus.iq.fu_full::SimdSha256Hash            0      0.00%     99.98% # attempts to use FU when none available
system.switch_cpus.iq.fu_full::SimdSha256Hash2            0      0.00%     99.98% # attempts to use FU when none available
system.switch_cpus.iq.fu_full::SimdShaSigma2            0      0.00%     99.98% # attempts to use FU when none available
system.switch_cpus.iq.fu_full::SimdShaSigma3            0      0.00%     99.98% # attempts to use FU when none available
system.switch_cpus.iq.fu_full::SimdPredAlu            0      0.00%     99.98% # attempts to use FU when none available
system.switch_cpus.iq.fu_full::MemRead             31      0.01%     99.99% # attempts to use FU when none available
system.switch_cpus.iq.fu_full::MemWrite            28      0.01%    100.00% # attempts to use FU when none available
system.switch_cpus.iq.fu_full::FloatMemRead            0      0.00%    100.00% # attempts to use FU when none available
system.switch_cpus.iq.fu_full::FloatMemWrite            0      0.00%    100.00% # attempts to use FU when none available
system.switch_cpus.iq.fu_full::IprAccess            0      0.00%    100.00% # attempts to use FU when none available
system.switch_cpus.iq.fu_full::InstPrefetch            0      0.00%    100.00% # attempts to use FU when none available
system.switch_cpus.iq.int_alu_accesses       20754454                       # Number of integer alu accesses
system.switch_cpus.iq.int_inst_queue_reads     55429542                       # Number of integer instruction queue reads
system.switch_cpus.iq.int_inst_queue_wakeup_accesses     20414640                       # Number of integer instruction queue wakeup accesses
system.switch_cpus.iq.int_inst_queue_writes     20425288                       # Number of integer instruction queue writes
system.switch_cpus.iq.iqInstsAdded           20417647                       # Number of instructions added to the IQ (excludes non-spec)
system.switch_cpus.iq.iqInstsIssued          20415547                       # Number of instructions issued
system.switch_cpus.iq.iqSquashedInstsExamined         7602                       # Number of squashed instructions iterated over during squash; mainly for profiling
system.switch_cpus.iq.iqSquashedInstsIssued           44                       # Number of squashed instructions issued
system.switch_cpus.iq.iqSquashedOperandsExamined        10751                       # Number of squashed operands that are examined and possibly removed from graph
system.switch_cpus.iq.issued_per_cycle::samples     14259351                       # Number of insts issued each cycle
system.switch_cpus.iq.issued_per_cycle::mean     1.431730                       # Number of insts issued each cycle
system.switch_cpus.iq.issued_per_cycle::stdev     2.434597                       # Number of insts issued each cycle
system.switch_cpus.iq.issued_per_cycle::underflows            0      0.00%      0.00% # Number of insts issued each cycle
system.switch_cpus.iq.issued_per_cycle::0      9678214     67.87%     67.87% # Number of insts issued each cycle
system.switch_cpus.iq.issued_per_cycle::1       747483      5.24%     73.11% # Number of insts issued each cycle
system.switch_cpus.iq.issued_per_cycle::2       360640      2.53%     75.64% # Number of insts issued each cycle
system.switch_cpus.iq.issued_per_cycle::3       455032      3.19%     78.84% # Number of insts issued each cycle
system.switch_cpus.iq.issued_per_cycle::4       544427      3.82%     82.65% # Number of insts issued each cycle
system.switch_cpus.iq.issued_per_cycle::5       748204      5.25%     87.90% # Number of insts issued each cycle
system.switch_cpus.iq.issued_per_cycle::6       861239      6.04%     93.94% # Number of insts issued each cycle
system.switch_cpus.iq.issued_per_cycle::7       417370      2.93%     96.87% # Number of insts issued each cycle
system.switch_cpus.iq.issued_per_cycle::8       446742      3.13%    100.00% # Number of insts issued each cycle
system.switch_cpus.iq.issued_per_cycle::overflows            0      0.00%    100.00% # Number of insts issued each cycle
system.switch_cpus.iq.issued_per_cycle::min_value            0                       # Number of insts issued each cycle
system.switch_cpus.iq.issued_per_cycle::max_value            8                       # Number of insts issued each cycle
system.switch_cpus.iq.issued_per_cycle::total     14259351                       # Number of insts issued each cycle
system.switch_cpus.iq.rate                   1.431360                       # Inst issue rate
system.switch_cpus.iq.vec_alu_accesses              0                       # Number of vector alu accesses
system.switch_cpus.iq.vec_inst_queue_reads            0                       # Number of vector instruction queue reads
system.switch_cpus.iq.vec_inst_queue_wakeup_accesses            0                       # Number of vector instruction queue wakeup accesses
system.switch_cpus.iq.vec_inst_queue_writes            0                       # Number of vector instruction queue writes
system.switch_cpus.itb.rdAccesses                   0                       # TLB accesses on read requests
system.switch_cpus.itb.rdMisses                     0                       # TLB misses on read requests
system.switch_cpus.itb.wrAccesses              822854                       # TLB accesses on write requests
system.switch_cpus.itb.wrMisses                    38                       # TLB misses on write requests
system.switch_cpus.memDep0.conflictingLoads          128                       # Number of conflicting loads.
system.switch_cpus.memDep0.conflictingStores           42                       # Number of conflicting stores.
system.switch_cpus.memDep0.insertedLoads      4522199                       # Number of loads inserted to the mem dependence unit.
system.switch_cpus.memDep0.insertedStores       137682                       # Number of stores inserted to the mem dependence unit.
system.switch_cpus.misc_regfile_reads         9865253                       # number of misc regfile reads
system.switch_cpus.misc_regfile_writes              1                       # number of misc regfile writes
system.switch_cpus.numCycles                 14263038                       # number of cpu cycles simulated
system.switch_cpus.numWorkItemsCompleted            0                       # number of work items this cpu completed
system.switch_cpus.numWorkItemsStarted              0                       # number of work items this cpu started
system.switch_cpus.rename.BlockCycles          356807                       # Number of cycles rename is blocking
system.switch_cpus.rename.CommittedMaps      23697269                       # Number of HB maps that are committed
system.switch_cpus.rename.IQFullEvents          44637                       # Number of times rename has blocked due to IQ full
system.switch_cpus.rename.IdleCycles           740246                       # Number of cycles rename is idle
system.switch_cpus.rename.LQFullEvents       10237394                       # Number of times rename has blocked due to LQ full
system.switch_cpus.rename.ROBFullEvents           873                       # Number of times rename has blocked due to ROB full
system.switch_cpus.rename.RenameLookups      58926432                       # Number of register rename lookups that rename has made
system.switch_cpus.rename.RenamedInsts       20419073                       # Number of instructions processed by rename
system.switch_cpus.rename.RenamedOperands     23707520                       # Number of destination operands rename has renamed
system.switch_cpus.rename.RunCycles           2834072                       # Number of cycles rename is running
system.switch_cpus.rename.SquashCycles            251                       # Number of cycles rename is squashing
system.switch_cpus.rename.UnblockCycles      10327955                       # Number of cycles rename is unblocking
system.switch_cpus.rename.UndoneMaps            10104                       # Number of HB maps that are undone due to squashing
system.switch_cpus.rename.int_rename_lookups     36041857                       # Number of integer rename lookups
system.switch_cpus.rename.serializeStallCycles            0                       # count of cycles rename stalled for serializing inst
system.switch_cpus.rename.serializingInsts            0                       # count of serializing insts renamed
system.switch_cpus.rename.skidInsts           1260947                       # count of insts added to the skid buffer
system.switch_cpus.rename.tempSerializingInsts            0                       # count of temporary serializing insts renamed
system.switch_cpus.rob.rob_reads             32314273                       # The number of ROB reads
system.switch_cpus.rob.rob_writes            40836544                       # The number of ROB writes
system.switch_cpus.timesIdled                      41                       # Number of times that the entire CPU went into an idle state and unscheduled itself
system.tol2bus.snoop_filter.hit_multi_requests            0                       # Number of requests hitting in the snoop filter with multiple (>1) holders of the requested data.
system.tol2bus.snoop_filter.hit_multi_snoops            0                       # Number of snoops hitting in the snoop filter with multiple (>1) holders of the requested data.
system.tol2bus.snoop_filter.hit_single_requests       101848                       # Number of requests hitting in the snoop filter with a single holder of the requested data.
system.tol2bus.snoop_filter.hit_single_snoops        18587                       # Number of snoops hitting in the snoop filter with a single holder of the requested data.
system.tol2bus.snoop_filter.tot_requests       204764                       # Total number of requests made to the snoop filter.
system.tol2bus.snoop_filter.tot_snoops          18587                       # Total number of snoops made to the snoop filter.
system.membus.pwrStateResidencyTicks::UNDEFINED 136221517850500                       # Cumulative time (in ticks) in various power states
system.membus.trans_dist::ReadResp              93656                       # Transaction distribution
system.membus.trans_dist::WritebackDirty           51                       # Transaction distribution
system.membus.trans_dist::CleanEvict            89294                       # Transaction distribution
system.membus.trans_dist::ReadExReq                 9                       # Transaction distribution
system.membus.trans_dist::ReadExResp                9                       # Transaction distribution
system.membus.trans_dist::ReadSharedReq         93656                       # Transaction distribution
system.membus.pkt_count_system.l2.mem_side::system.mem_ctrls.port       276675                       # Packet count per connected master and slave (bytes)
system.membus.pkt_count_system.l2.mem_side::total       276675                       # Packet count per connected master and slave (bytes)
system.membus.pkt_count::total                 276675                       # Packet count per connected master and slave (bytes)
system.membus.pkt_size_system.l2.mem_side::system.mem_ctrls.port      5997824                       # Cumulative packet size per connected master and slave (bytes)
system.membus.pkt_size_system.l2.mem_side::total      5997824                       # Cumulative packet size per connected master and slave (bytes)
system.membus.pkt_size::total                 5997824                       # Cumulative packet size per connected master and slave (bytes)
system.membus.snoops                                0                       # Total snoops (count)
system.membus.snoopTraffic                          0                       # Total snoop traffic (bytes)
system.membus.snoop_fanout::samples             93665                       # Request fanout histogram
system.membus.snoop_fanout::mean                    0                       # Request fanout histogram
system.membus.snoop_fanout::stdev                   0                       # Request fanout histogram
system.membus.snoop_fanout::underflows              0      0.00%      0.00% # Request fanout histogram
system.membus.snoop_fanout::0                   93665    100.00%    100.00% # Request fanout histogram
system.membus.snoop_fanout::1                       0      0.00%    100.00% # Request fanout histogram
system.membus.snoop_fanout::overflows               0      0.00%    100.00% # Request fanout histogram
system.membus.snoop_fanout::min_value               0                       # Request fanout histogram
system.membus.snoop_fanout::max_value               0                       # Request fanout histogram
system.membus.snoop_fanout::total               93665                       # Request fanout histogram
system.membus.reqLayer2.occupancy           208027000                       # Layer occupancy (ticks)
system.membus.reqLayer2.utilization               2.9                       # Layer utilization (%)
system.membus.respLayer1.occupancy          497192250                       # Layer occupancy (ticks)
system.membus.respLayer1.utilization              7.0                       # Layer utilization (%)
system.switch_cpus.pwrStateResidencyTicks::OFF   7131529250                       # Cumulative time (in ticks) in various power states
system.switch_cpus.dtb.walker.pwrStateResidencyTicks::UNDEFINED 136221517850500                       # Cumulative time (in ticks) in various power states
system.switch_cpus.itb.walker.pwrStateResidencyTicks::UNDEFINED 136221517850500                       # Cumulative time (in ticks) in various power states
system.tol2bus.pwrStateResidencyTicks::UNDEFINED 136221517850500                       # Cumulative time (in ticks) in various power states
system.tol2bus.trans_dist::ReadResp            102907                       # Transaction distribution
system.tol2bus.trans_dist::WritebackDirty          108                       # Transaction distribution
system.tol2bus.trans_dist::CleanEvict          191315                       # Transaction distribution
system.tol2bus.trans_dist::ReadExReq                9                       # Transaction distribution
system.tol2bus.trans_dist::ReadExResp               9                       # Transaction distribution
system.tol2bus.trans_dist::ReadCleanReq            44                       # Transaction distribution
system.tol2bus.trans_dist::ReadSharedReq       102863                       # Transaction distribution
system.tol2bus.pkt_count_system.cpu.icache.mem_side::system.l2.cpu_side           88                       # Packet count per connected master and slave (bytes)
system.tol2bus.pkt_count_system.cpu.dcache.mem_side::system.l2.cpu_side       307592                       # Packet count per connected master and slave (bytes)
system.tol2bus.pkt_count::total                307680                       # Packet count per connected master and slave (bytes)
system.tol2bus.pkt_size_system.cpu.icache.mem_side::system.l2.cpu_side         2816                       # Cumulative packet size per connected master and slave (bytes)
system.tol2bus.pkt_size_system.cpu.dcache.mem_side::system.l2.cpu_side      6587456                       # Cumulative packet size per connected master and slave (bytes)
system.tol2bus.pkt_size::total                6590272                       # Cumulative packet size per connected master and slave (bytes)
system.tol2bus.snoops                           89575                       # Total snoops (count)
system.tol2bus.snoopTraffic                      3264                       # Total snoop traffic (bytes)
system.tol2bus.snoop_fanout::samples           192491                       # Request fanout histogram
system.tol2bus.snoop_fanout::mean            0.096560                       # Request fanout histogram
system.tol2bus.snoop_fanout::stdev           0.295359                       # Request fanout histogram
system.tol2bus.snoop_fanout::underflows             0      0.00%      0.00% # Request fanout histogram
system.tol2bus.snoop_fanout::0                 173904     90.34%     90.34% # Request fanout histogram
system.tol2bus.snoop_fanout::1                  18587      9.66%    100.00% # Request fanout histogram
system.tol2bus.snoop_fanout::2                      0      0.00%    100.00% # Request fanout histogram
system.tol2bus.snoop_fanout::3                      0      0.00%    100.00% # Request fanout histogram
system.tol2bus.snoop_fanout::4                      0      0.00%    100.00% # Request fanout histogram
system.tol2bus.snoop_fanout::overflows              0      0.00%    100.00% # Request fanout histogram
system.tol2bus.snoop_fanout::min_value              0                       # Request fanout histogram
system.tol2bus.snoop_fanout::max_value              1                       # Request fanout histogram
system.tol2bus.snoop_fanout::total             192491                       # Request fanout histogram
system.tol2bus.reqLayer0.occupancy          102436000                       # Layer occupancy (ticks)
system.tol2bus.reqLayer0.utilization              1.4                       # Layer utilization (%)
system.tol2bus.respLayer1.occupancy         154303500                       # Layer occupancy (ticks)
system.tol2bus.respLayer1.utilization             2.2                       # Layer utilization (%)
system.tol2bus.respLayer0.occupancy             61500                       # Layer occupancy (ticks)
system.tol2bus.respLayer0.utilization             0.0                       # Layer utilization (%)
system.voltage_domain.voltage                       1                       # Voltage in Volts
system.clk_domain.clock                          1000                       # Clock period in ticks
system.l2.pwrStateResidencyTicks::UNDEFINED 136221517850500                       # Cumulative time (in ticks) in various power states
system.l2.demand_hits::.switch_cpus.data         9251                       # number of demand (read+write) hits
system.l2.demand_hits::total                     9251                       # number of demand (read+write) hits
system.l2.overall_hits::.switch_cpus.data         9251                       # number of overall hits
system.l2.overall_hits::total                    9251                       # number of overall hits
system.l2.demand_misses::.cpu.inst                  3                       # number of demand (read+write) misses
system.l2.demand_misses::.cpu.data                  3                       # number of demand (read+write) misses
system.l2.demand_misses::.switch_cpus.inst           41                       # number of demand (read+write) misses
system.l2.demand_misses::.switch_cpus.data        93618                       # number of demand (read+write) misses
system.l2.demand_misses::total                  93665                       # number of demand (read+write) misses
system.l2.overall_misses::.cpu.inst                 3                       # number of overall misses
system.l2.overall_misses::.cpu.data                 3                       # number of overall misses
system.l2.overall_misses::.switch_cpus.inst           41                       # number of overall misses
system.l2.overall_misses::.switch_cpus.data        93618                       # number of overall misses
system.l2.overall_misses::total                 93665                       # number of overall misses
system.l2.demand_miss_latency::.switch_cpus.inst      3138500                       # number of demand (read+write) miss cycles
system.l2.demand_miss_latency::.switch_cpus.data   7125060500                       # number of demand (read+write) miss cycles
system.l2.demand_miss_latency::total       7128199000                       # number of demand (read+write) miss cycles
system.l2.overall_miss_latency::.switch_cpus.inst      3138500                       # number of overall miss cycles
system.l2.overall_miss_latency::.switch_cpus.data   7125060500                       # number of overall miss cycles
system.l2.overall_miss_latency::total      7128199000                       # number of overall miss cycles
system.l2.demand_accesses::.cpu.inst                3                       # number of demand (read+write) accesses
system.l2.demand_accesses::.cpu.data                3                       # number of demand (read+write) accesses
system.l2.demand_accesses::.switch_cpus.inst           41                       # number of demand (read+write) accesses
system.l2.demand_accesses::.switch_cpus.data       102869                       # number of demand (read+write) accesses
system.l2.demand_accesses::total               102916                       # number of demand (read+write) accesses
system.l2.overall_accesses::.cpu.inst               3                       # number of overall (read+write) accesses
system.l2.overall_accesses::.cpu.data               3                       # number of overall (read+write) accesses
system.l2.overall_accesses::.switch_cpus.inst           41                       # number of overall (read+write) accesses
system.l2.overall_accesses::.switch_cpus.data       102869                       # number of overall (read+write) accesses
system.l2.overall_accesses::total              102916                       # number of overall (read+write) accesses
system.l2.demand_miss_rate::.cpu.inst               1                       # miss rate for demand accesses
system.l2.demand_miss_rate::.cpu.data               1                       # miss rate for demand accesses
system.l2.demand_miss_rate::.switch_cpus.inst            1                       # miss rate for demand accesses
system.l2.demand_miss_rate::.switch_cpus.data     0.910070                       # miss rate for demand accesses
system.l2.demand_miss_rate::total            0.910111                       # miss rate for demand accesses
system.l2.overall_miss_rate::.cpu.inst              1                       # miss rate for overall accesses
system.l2.overall_miss_rate::.cpu.data              1                       # miss rate for overall accesses
system.l2.overall_miss_rate::.switch_cpus.inst            1                       # miss rate for overall accesses
system.l2.overall_miss_rate::.switch_cpus.data     0.910070                       # miss rate for overall accesses
system.l2.overall_miss_rate::total           0.910111                       # miss rate for overall accesses
system.l2.demand_avg_miss_latency::.switch_cpus.inst 76548.780488                       # average overall miss latency
system.l2.demand_avg_miss_latency::.switch_cpus.data 76107.805123                       # average overall miss latency
system.l2.demand_avg_miss_latency::total 76103.122831                       # average overall miss latency
system.l2.overall_avg_miss_latency::.switch_cpus.inst 76548.780488                       # average overall miss latency
system.l2.overall_avg_miss_latency::.switch_cpus.data 76107.805123                       # average overall miss latency
system.l2.overall_avg_miss_latency::total 76103.122831                       # average overall miss latency
system.l2.blocked_cycles::no_mshrs                  0                       # number of cycles access was blocked
system.l2.blocked_cycles::no_targets                0                       # number of cycles access was blocked
system.l2.blocked::no_mshrs                         0                       # number of cycles access was blocked
system.l2.blocked::no_targets                       0                       # number of cycles access was blocked
system.l2.avg_blocked_cycles::no_mshrs            nan                       # average number of cycles each access was blocked
system.l2.avg_blocked_cycles::no_targets          nan                       # average number of cycles each access was blocked
system.l2.writebacks::.writebacks                  51                       # number of writebacks
system.l2.writebacks::total                        51                       # number of writebacks
system.l2.demand_mshr_misses::.switch_cpus.inst           41                       # number of demand (read+write) MSHR misses
system.l2.demand_mshr_misses::.switch_cpus.data        93618                       # number of demand (read+write) MSHR misses
system.l2.demand_mshr_misses::total             93659                       # number of demand (read+write) MSHR misses
system.l2.overall_mshr_misses::.switch_cpus.inst           41                       # number of overall MSHR misses
system.l2.overall_mshr_misses::.switch_cpus.data        93618                       # number of overall MSHR misses
system.l2.overall_mshr_misses::total            93659                       # number of overall MSHR misses
system.l2.demand_mshr_miss_latency::.switch_cpus.inst      2728500                       # number of demand (read+write) MSHR miss cycles
system.l2.demand_mshr_miss_latency::.switch_cpus.data   6188880500                       # number of demand (read+write) MSHR miss cycles
system.l2.demand_mshr_miss_latency::total   6191609000                       # number of demand (read+write) MSHR miss cycles
system.l2.overall_mshr_miss_latency::.switch_cpus.inst      2728500                       # number of overall MSHR miss cycles
system.l2.overall_mshr_miss_latency::.switch_cpus.data   6188880500                       # number of overall MSHR miss cycles
system.l2.overall_mshr_miss_latency::total   6191609000                       # number of overall MSHR miss cycles
system.l2.demand_mshr_miss_rate::.switch_cpus.inst            1                       # mshr miss rate for demand accesses
system.l2.demand_mshr_miss_rate::.switch_cpus.data     0.910070                       # mshr miss rate for demand accesses
system.l2.demand_mshr_miss_rate::total       0.910053                       # mshr miss rate for demand accesses
system.l2.overall_mshr_miss_rate::.switch_cpus.inst            1                       # mshr miss rate for overall accesses
system.l2.overall_mshr_miss_rate::.switch_cpus.data     0.910070                       # mshr miss rate for overall accesses
system.l2.overall_mshr_miss_rate::total      0.910053                       # mshr miss rate for overall accesses
system.l2.demand_avg_mshr_miss_latency::.switch_cpus.inst 66548.780488                       # average overall mshr miss latency
system.l2.demand_avg_mshr_miss_latency::.switch_cpus.data 66107.805123                       # average overall mshr miss latency
system.l2.demand_avg_mshr_miss_latency::total 66107.998164                       # average overall mshr miss latency
system.l2.overall_avg_mshr_miss_latency::.switch_cpus.inst 66548.780488                       # average overall mshr miss latency
system.l2.overall_avg_mshr_miss_latency::.switch_cpus.data 66107.805123                       # average overall mshr miss latency
system.l2.overall_avg_mshr_miss_latency::total 66107.998164                       # average overall mshr miss latency
system.l2.replacements                          89575                       # number of replacements
system.l2.WritebackDirty_hits::.writebacks           57                       # number of WritebackDirty hits
system.l2.WritebackDirty_hits::total               57                       # number of WritebackDirty hits
system.l2.WritebackDirty_accesses::.writebacks           57                       # number of WritebackDirty accesses(hits+misses)
system.l2.WritebackDirty_accesses::total           57                       # number of WritebackDirty accesses(hits+misses)
system.l2.CleanEvict_mshr_misses::.writebacks        18357                       # number of CleanEvict MSHR misses
system.l2.CleanEvict_mshr_misses::total         18357                       # number of CleanEvict MSHR misses
system.l2.CleanEvict_mshr_miss_rate::.writebacks          inf                       # mshr miss rate for CleanEvict accesses
system.l2.CleanEvict_mshr_miss_rate::total          inf                       # mshr miss rate for CleanEvict accesses
system.l2.ReadExReq_misses::.switch_cpus.data            9                       # number of ReadExReq misses
system.l2.ReadExReq_misses::total                   9                       # number of ReadExReq misses
system.l2.ReadExReq_miss_latency::.switch_cpus.data       473000                       # number of ReadExReq miss cycles
system.l2.ReadExReq_miss_latency::total        473000                       # number of ReadExReq miss cycles
system.l2.ReadExReq_accesses::.switch_cpus.data            9                       # number of ReadExReq accesses(hits+misses)
system.l2.ReadExReq_accesses::total                 9                       # number of ReadExReq accesses(hits+misses)
system.l2.ReadExReq_miss_rate::.switch_cpus.data            1                       # miss rate for ReadExReq accesses
system.l2.ReadExReq_miss_rate::total                1                       # miss rate for ReadExReq accesses
system.l2.ReadExReq_avg_miss_latency::.switch_cpus.data 52555.555556                       # average ReadExReq miss latency
system.l2.ReadExReq_avg_miss_latency::total 52555.555556                       # average ReadExReq miss latency
system.l2.ReadExReq_mshr_misses::.switch_cpus.data            9                       # number of ReadExReq MSHR misses
system.l2.ReadExReq_mshr_misses::total              9                       # number of ReadExReq MSHR misses
system.l2.ReadExReq_mshr_miss_latency::.switch_cpus.data       383000                       # number of ReadExReq MSHR miss cycles
system.l2.ReadExReq_mshr_miss_latency::total       383000                       # number of ReadExReq MSHR miss cycles
system.l2.ReadExReq_mshr_miss_rate::.switch_cpus.data            1                       # mshr miss rate for ReadExReq accesses
system.l2.ReadExReq_mshr_miss_rate::total            1                       # mshr miss rate for ReadExReq accesses
system.l2.ReadExReq_avg_mshr_miss_latency::.switch_cpus.data 42555.555556                       # average ReadExReq mshr miss latency
system.l2.ReadExReq_avg_mshr_miss_latency::total 42555.555556                       # average ReadExReq mshr miss latency
system.l2.ReadCleanReq_misses::.cpu.inst            3                       # number of ReadCleanReq misses
system.l2.ReadCleanReq_misses::.switch_cpus.inst           41                       # number of ReadCleanReq misses
system.l2.ReadCleanReq_misses::total               44                       # number of ReadCleanReq misses
system.l2.ReadCleanReq_miss_latency::.switch_cpus.inst      3138500                       # number of ReadCleanReq miss cycles
system.l2.ReadCleanReq_miss_latency::total      3138500                       # number of ReadCleanReq miss cycles
system.l2.ReadCleanReq_accesses::.cpu.inst            3                       # number of ReadCleanReq accesses(hits+misses)
system.l2.ReadCleanReq_accesses::.switch_cpus.inst           41                       # number of ReadCleanReq accesses(hits+misses)
system.l2.ReadCleanReq_accesses::total             44                       # number of ReadCleanReq accesses(hits+misses)
system.l2.ReadCleanReq_miss_rate::.cpu.inst            1                       # miss rate for ReadCleanReq accesses
system.l2.ReadCleanReq_miss_rate::.switch_cpus.inst            1                       # miss rate for ReadCleanReq accesses
system.l2.ReadCleanReq_miss_rate::total             1                       # miss rate for ReadCleanReq accesses
system.l2.ReadCleanReq_avg_miss_latency::.switch_cpus.inst 76548.780488                       # average ReadCleanReq miss latency
system.l2.ReadCleanReq_avg_miss_latency::total 71329.545455                       # average ReadCleanReq miss latency
system.l2.ReadCleanReq_mshr_misses::.switch_cpus.inst           41                       # number of ReadCleanReq MSHR misses
system.l2.ReadCleanReq_mshr_misses::total           41                       # number of ReadCleanReq MSHR misses
system.l2.ReadCleanReq_mshr_miss_latency::.switch_cpus.inst      2728500                       # number of ReadCleanReq MSHR miss cycles
system.l2.ReadCleanReq_mshr_miss_latency::total      2728500                       # number of ReadCleanReq MSHR miss cycles
system.l2.ReadCleanReq_mshr_miss_rate::.switch_cpus.inst            1                       # mshr miss rate for ReadCleanReq accesses
system.l2.ReadCleanReq_mshr_miss_rate::total     0.931818                       # mshr miss rate for ReadCleanReq accesses
system.l2.ReadCleanReq_avg_mshr_miss_latency::.switch_cpus.inst 66548.780488                       # average ReadCleanReq mshr miss latency
system.l2.ReadCleanReq_avg_mshr_miss_latency::total 66548.780488                       # average ReadCleanReq mshr miss latency
system.l2.ReadSharedReq_hits::.switch_cpus.data         9251                       # number of ReadSharedReq hits
system.l2.ReadSharedReq_hits::total              9251                       # number of ReadSharedReq hits
system.l2.ReadSharedReq_misses::.cpu.data            3                       # number of ReadSharedReq misses
system.l2.ReadSharedReq_misses::.switch_cpus.data        93609                       # number of ReadSharedReq misses
system.l2.ReadSharedReq_misses::total           93612                       # number of ReadSharedReq misses
system.l2.ReadSharedReq_miss_latency::.switch_cpus.data   7124587500                       # number of ReadSharedReq miss cycles
[...]
system.cpu.icache.tags.occ_task_id_percent::1024     0.095703                       # Percentage of cache occupancy per task id
system.cpu.icache.tags.tag_accesses           6580869                       # Number of tag accesses
system.cpu.icache.tags.data_accesses          6580869                       # Number of data accesses
system.cpu.dtb.walker.pwrStateResidencyTicks::UNDEFINED 136243894975500                       # Cumulative time (in ticks) in various power states
system.cpu.interrupts.clk_domain.clock           8000                       # Clock period in ticks
system.cpu.itb_walker_cache.pwrStateResidencyTicks::UNDEFINED 136243894975500                       # Cumulative time (in ticks) in various power states
system.cpu.itb_walker_cache.blocked_cycles::no_mshrs            0                       # number of cycles access was blocked
system.cpu.itb_walker_cache.blocked_cycles::no_targets            0                       # number of cycles access was blocked
system.cpu.itb_walker_cache.blocked::no_mshrs            0                       # number of cycles access was blocked
system.cpu.itb_walker_cache.blocked::no_targets            0                       # number of cycles access was blocked
system.cpu.itb_walker_cache.avg_blocked_cycles::no_mshrs          nan                       # average number of cycles each access was blocked
system.cpu.itb_walker_cache.avg_blocked_cycles::no_targets          nan                       # average number of cycles each access was blocked
system.cpu.itb_walker_cache.replacements            0                       # number of replacements
system.cpu.itb_walker_cache.tags.pwrStateResidencyTicks::UNDEFINED 136243894975500                       # Cumulative time (in ticks) in various power states
system.cpu.itb_walker_cache.tags.tagsinuse            0                       # Cycle average of tags in use
system.cpu.itb_walker_cache.tags.total_refs            0                       # Total number of references to valid blocks.
system.cpu.itb_walker_cache.tags.sampled_refs            0                       # Sample count of references to valid blocks.
system.cpu.itb_walker_cache.tags.avg_refs          nan                       # Average number of references to valid blocks.
system.cpu.itb_walker_cache.tags.warmup_cycle            0                       # Cycle when the warmup percentage was hit.
system.cpu.itb_walker_cache.tags.tag_accesses            0                       # Number of tag accesses
system.cpu.itb_walker_cache.tags.data_accesses            0                       # Number of data accesses
system.cpu.itb.walker.pwrStateResidencyTicks::UNDEFINED 136243894975500                       # Cumulative time (in ticks) in various power states
system.cpu.dtb_walker_cache.pwrStateResidencyTicks::UNDEFINED 136243894975500                       # Cumulative time (in ticks) in various power states
system.cpu.dtb_walker_cache.blocked_cycles::no_mshrs            0                       # number of cycles access was blocked
system.cpu.dtb_walker_cache.blocked_cycles::no_targets            0                       # number of cycles access was blocked
system.cpu.dtb_walker_cache.blocked::no_mshrs            0                       # number of cycles access was blocked
system.cpu.dtb_walker_cache.blocked::no_targets            0                       # number of cycles access was blocked
system.cpu.dtb_walker_cache.avg_blocked_cycles::no_mshrs          nan                       # average number of cycles each access was blocked
system.cpu.dtb_walker_cache.avg_blocked_cycles::no_targets          nan                       # average number of cycles each access was blocked
system.cpu.dtb_walker_cache.replacements            0                       # number of replacements
system.cpu.dtb_walker_cache.tags.pwrStateResidencyTicks::UNDEFINED 136243894975500                       # Cumulative time (in ticks) in various power states
system.cpu.dtb_walker_cache.tags.tagsinuse            0                       # Cycle average of tags in use
system.cpu.dtb_walker_cache.tags.total_refs            0                       # Total number of references to valid blocks.
system.cpu.dtb_walker_cache.tags.sampled_refs            0                       # Sample count of references to valid blocks.
system.cpu.dtb_walker_cache.tags.avg_refs          nan                       # Average number of references to valid blocks.
system.cpu.dtb_walker_cache.tags.warmup_cycle            0                       # Cycle when the warmup percentage was hit.
system.cpu.dtb_walker_cache.tags.tag_accesses            0                       # Number of tag accesses
system.cpu.dtb_walker_cache.tags.data_accesses            0                       # Number of data accesses
system.cpu.dcache.pwrStateResidencyTicks::UNDEFINED 136243894975500                       # Cumulative time (in ticks) in various power states
system.cpu.dcache.demand_hits::.switch_cpus.data     15551798                       # number of demand (read+write) hits
system.cpu.dcache.demand_hits::total         15551798                       # number of demand (read+write) hits
system.cpu.dcache.overall_hits::.switch_cpus.data     15551798                       # number of overall hits
system.cpu.dcache.overall_hits::total        15551798                       # number of overall hits
system.cpu.dcache.demand_misses::.cpu.data            3                       # number of demand (read+write) misses
system.cpu.dcache.demand_misses::.switch_cpus.data      3081982                       # number of demand (read+write) misses
system.cpu.dcache.demand_misses::total        3081985                       # number of demand (read+write) misses
system.cpu.dcache.overall_misses::.cpu.data            3                       # number of overall misses
system.cpu.dcache.overall_misses::.switch_cpus.data      3081982                       # number of overall misses
system.cpu.dcache.overall_misses::total       3081985                       # number of overall misses
system.cpu.dcache.demand_miss_latency::.switch_cpus.data 193126603000                       # number of demand (read+write) miss cycles
system.cpu.dcache.demand_miss_latency::total 193126603000                       # number of demand (read+write) miss cycles
system.cpu.dcache.overall_miss_latency::.switch_cpus.data 193126603000                       # number of overall miss cycles
system.cpu.dcache.overall_miss_latency::total 193126603000                       # number of overall miss cycles
system.cpu.dcache.demand_accesses::.cpu.data            3                       # number of demand (read+write) accesses
system.cpu.dcache.demand_accesses::.switch_cpus.data     18633780                       # number of demand (read+write) accesses
system.cpu.dcache.demand_accesses::total     18633783                       # number of demand (read+write) accesses
system.cpu.dcache.overall_accesses::.cpu.data            3                       # number of overall (read+write) accesses
system.cpu.dcache.overall_accesses::.switch_cpus.data     18633780                       # number of overall (read+write) accesses
system.cpu.dcache.overall_accesses::total     18633783                       # number of overall (read+write) accesses
system.cpu.dcache.demand_miss_rate::.cpu.data            1                       # miss rate for demand accesses
system.cpu.dcache.demand_miss_rate::.switch_cpus.data     0.165398                       # miss rate for demand accesses
system.cpu.dcache.demand_miss_rate::total     0.165398                       # miss rate for demand accesses
system.cpu.dcache.overall_miss_rate::.cpu.data            1                       # miss rate for overall accesses
system.cpu.dcache.overall_miss_rate::.switch_cpus.data     0.165398                       # miss rate for overall accesses
system.cpu.dcache.overall_miss_rate::total     0.165398                       # miss rate for overall accesses
system.cpu.dcache.demand_avg_miss_latency::.switch_cpus.data 62663.118409                       # average overall miss latency
system.cpu.dcache.demand_avg_miss_latency::total 62663.057413                       # average overall miss latency
system.cpu.dcache.overall_avg_miss_latency::.switch_cpus.data 62663.118409                       # average overall miss latency
system.cpu.dcache.overall_avg_miss_latency::total 62663.057413                       # average overall miss latency
system.cpu.dcache.blocked_cycles::no_mshrs         2876                       # number of cycles access was blocked
system.cpu.dcache.blocked_cycles::no_targets            0                       # number of cycles access was blocked
system.cpu.dcache.blocked::no_mshrs                58                       # number of cycles access was blocked
system.cpu.dcache.blocked::no_targets               0                       # number of cycles access was blocked
system.cpu.dcache.avg_blocked_cycles::no_mshrs    49.586207                       # average number of cycles each access was blocked
system.cpu.dcache.avg_blocked_cycles::no_targets          nan                       # average number of cycles each access was blocked
system.cpu.dcache.writebacks::.writebacks          215                       # number of writebacks
system.cpu.dcache.writebacks::total               215                       # number of writebacks
system.cpu.dcache.demand_mshr_hits::.switch_cpus.data      2670911                       # number of demand (read+write) MSHR hits
system.cpu.dcache.demand_mshr_hits::total      2670911                       # number of demand (read+write) MSHR hits
system.cpu.dcache.overall_mshr_hits::.switch_cpus.data      2670911                       # number of overall MSHR hits
system.cpu.dcache.overall_mshr_hits::total      2670911                       # number of overall MSHR hits
system.cpu.dcache.demand_mshr_misses::.switch_cpus.data       411071                       # number of demand (read+write) MSHR misses
system.cpu.dcache.demand_mshr_misses::total       411071                       # number of demand (read+write) MSHR misses
system.cpu.dcache.overall_mshr_misses::.switch_cpus.data       411071                       # number of overall MSHR misses
system.cpu.dcache.overall_mshr_misses::total       411071                       # number of overall MSHR misses
system.cpu.dcache.demand_mshr_miss_latency::.switch_cpus.data  30311343500                       # number of demand (read+write) MSHR miss cycles
system.cpu.dcache.demand_mshr_miss_latency::total  30311343500                       # number of demand (read+write) MSHR miss cycles
system.cpu.dcache.overall_mshr_miss_latency::.switch_cpus.data  30311343500                       # number of overall MSHR miss cycles
system.cpu.dcache.overall_mshr_miss_latency::total  30311343500                       # number of overall MSHR miss cycles
system.cpu.dcache.demand_mshr_miss_rate::.switch_cpus.data     0.022061                       # mshr miss rate for demand accesses
system.cpu.dcache.demand_mshr_miss_rate::total     0.022061                       # mshr miss rate for demand accesses
system.cpu.dcache.overall_mshr_miss_rate::.switch_cpus.data     0.022061                       # mshr miss rate for overall accesses
system.cpu.dcache.overall_mshr_miss_rate::total     0.022061                       # mshr miss rate for overall accesses
system.cpu.dcache.demand_avg_mshr_miss_latency::.switch_cpus.data 73737.489387                       # average overall mshr miss latency
system.cpu.dcache.demand_avg_mshr_miss_latency::total 73737.489387                       # average overall mshr miss latency
system.cpu.dcache.overall_avg_mshr_miss_latency::.switch_cpus.data 73737.489387                       # average overall mshr miss latency
system.cpu.dcache.overall_avg_mshr_miss_latency::total 73737.489387                       # average overall mshr miss latency
system.cpu.dcache.replacements                 410049                       # number of replacements
system.cpu.dcache.ReadReq_hits::.switch_cpus.data     15003156                       # number of ReadReq hits
system.cpu.dcache.ReadReq_hits::total        15003156                       # number of ReadReq hits
system.cpu.dcache.ReadReq_misses::.cpu.data            3                       # number of ReadReq misses
system.cpu.dcache.ReadReq_misses::.switch_cpus.data      3081928                       # number of ReadReq misses
system.cpu.dcache.ReadReq_misses::total       3081931                       # number of ReadReq misses
system.cpu.dcache.ReadReq_miss_latency::.switch_cpus.data 193124301000                       # number of ReadReq miss cycles
system.cpu.dcache.ReadReq_miss_latency::total 193124301000                       # number of ReadReq miss cycles
system.cpu.dcache.ReadReq_accesses::.cpu.data            3                       # number of ReadReq accesses(hits+misses)
system.cpu.dcache.ReadReq_accesses::.switch_cpus.data     18085084                       # number of ReadReq accesses(hits+misses)
system.cpu.dcache.ReadReq_accesses::total     18085087                       # number of ReadReq accesses(hits+misses)
system.cpu.dcache.ReadReq_miss_rate::.cpu.data            1                       # miss rate for ReadReq accesses
system.cpu.dcache.ReadReq_miss_rate::.switch_cpus.data     0.170413                       # miss rate for ReadReq accesses
system.cpu.dcache.ReadReq_miss_rate::total     0.170413                       # miss rate for ReadReq accesses
system.cpu.dcache.ReadReq_avg_miss_latency::.switch_cpus.data 62663.469426                       # average ReadReq miss latency
system.cpu.dcache.ReadReq_avg_miss_latency::total 62663.408428                       # average ReadReq miss latency
system.cpu.dcache.ReadReq_mshr_hits::.switch_cpus.data      2670891                       # number of ReadReq MSHR hits
system.cpu.dcache.ReadReq_mshr_hits::total      2670891                       # number of ReadReq MSHR hits
system.cpu.dcache.ReadReq_mshr_misses::.switch_cpus.data       411037                       # number of ReadReq MSHR misses
system.cpu.dcache.ReadReq_mshr_misses::total       411037                       # number of ReadReq MSHR misses
system.cpu.dcache.ReadReq_mshr_miss_latency::.switch_cpus.data  30309792000                       # number of ReadReq MSHR miss cycles
system.cpu.dcache.ReadReq_mshr_miss_latency::total  30309792000                       # number of ReadReq MSHR miss cycles
system.cpu.dcache.ReadReq_mshr_miss_rate::.switch_cpus.data     0.022728                       # mshr miss rate for ReadReq accesses
system.cpu.dcache.ReadReq_mshr_miss_rate::total     0.022728                       # mshr miss rate for ReadReq accesses
system.cpu.dcache.ReadReq_avg_mshr_miss_latency::.switch_cpus.data 73739.814177                       # average ReadReq mshr miss latency
system.cpu.dcache.ReadReq_avg_mshr_miss_latency::total 73739.814177                       # average ReadReq mshr miss latency
system.cpu.dcache.WriteReq_hits::.switch_cpus.data       548642                       # number of WriteReq hits
system.cpu.dcache.WriteReq_hits::total         548642                       # number of WriteReq hits
system.cpu.dcache.WriteReq_misses::.switch_cpus.data           54                       # number of WriteReq misses
system.cpu.dcache.WriteReq_misses::total           54                       # number of WriteReq misses
system.cpu.dcache.WriteReq_miss_latency::.switch_cpus.data      2302000                       # number of WriteReq miss cycles
system.cpu.dcache.WriteReq_miss_latency::total      2302000                       # number of WriteReq miss cycles
system.cpu.dcache.WriteReq_accesses::.switch_cpus.data       548696                       # number of WriteReq accesses(hits+misses)
system.cpu.dcache.WriteReq_accesses::total       548696                       # number of WriteReq accesses(hits+misses)
system.cpu.dcache.WriteReq_miss_rate::.switch_cpus.data     0.000098                       # miss rate for WriteReq accesses
system.cpu.dcache.WriteReq_miss_rate::total     0.000098                       # miss rate for WriteReq accesses
system.cpu.dcache.WriteReq_avg_miss_latency::.switch_cpus.data 42629.629630                       # average WriteReq miss latency
system.cpu.dcache.WriteReq_avg_miss_latency::total 42629.629630                       # average WriteReq miss latency
system.cpu.dcache.WriteReq_mshr_hits::.switch_cpus.data           20                       # number of WriteReq MSHR hits
system.cpu.dcache.WriteReq_mshr_hits::total           20                       # number of WriteReq MSHR hits
system.cpu.dcache.WriteReq_mshr_misses::.switch_cpus.data           34                       # number of WriteReq MSHR misses
system.cpu.dcache.WriteReq_mshr_misses::total           34                       # number of WriteReq MSHR misses
system.cpu.dcache.WriteReq_mshr_miss_latency::.switch_cpus.data      1551500                       # number of WriteReq MSHR miss cycles
system.cpu.dcache.WriteReq_mshr_miss_latency::total      1551500                       # number of WriteReq MSHR miss cycles
system.cpu.dcache.WriteReq_mshr_miss_rate::.switch_cpus.data     0.000062                       # mshr miss rate for WriteReq accesses
system.cpu.dcache.WriteReq_mshr_miss_rate::total     0.000062                       # mshr miss rate for WriteReq accesses
system.cpu.dcache.WriteReq_avg_mshr_miss_latency::.switch_cpus.data 45632.352941                       # average WriteReq mshr miss latency
system.cpu.dcache.WriteReq_avg_mshr_miss_latency::total 45632.352941                       # average WriteReq mshr miss latency
system.cpu.dcache.tags.pwrStateResidencyTicks::UNDEFINED 136243894975500                       # Cumulative time (in ticks) in various power states
system.cpu.dcache.tags.tagsinuse             0.221440                       # Cycle average of tags in use
system.cpu.dcache.tags.total_refs            15962871                       # Total number of references to valid blocks.
system.cpu.dcache.tags.sampled_refs            411073                       # Sample count of references to valid blocks.
system.cpu.dcache.tags.avg_refs             38.832205                       # Average number of references to valid blocks.
system.cpu.dcache.tags.warmup_cycle      136214386326500                       # Cycle when the warmup percentage was hit.
system.cpu.dcache.tags.occ_blocks::.cpu.data     0.000002                       # Average occupied blocks per requestor
system.cpu.dcache.tags.occ_blocks::.switch_cpus.data     0.221438                       # Average occupied blocks per requestor
system.cpu.dcache.tags.occ_percent::.cpu.data     0.000000                       # Average percentage of cache occupancy
system.cpu.dcache.tags.occ_percent::.switch_cpus.data     0.000216                       # Average percentage of cache occupancy
system.cpu.dcache.tags.occ_percent::total     0.000216                       # Average percentage of cache occupancy
system.cpu.dcache.tags.occ_task_id_blocks::1024         1024                       # Occupied blocks per task id
system.cpu.dcache.tags.age_task_id_blocks_1024::0          131                       # Occupied blocks per task id
system.cpu.dcache.tags.age_task_id_blocks_1024::1          779                       # Occupied blocks per task id
system.cpu.dcache.tags.age_task_id_blocks_1024::2          113                       # Occupied blocks per task id
system.cpu.dcache.tags.age_task_id_blocks_1024::4            1                       # Occupied blocks per task id
system.cpu.dcache.tags.occ_task_id_percent::1024            1                       # Percentage of cache occupancy per task id
system.cpu.dcache.tags.tag_accesses          37678639                       # Number of tag accesses
system.cpu.dcache.tags.data_accesses         37678639                       # Number of data accesses

---------- End Simulation Statistics   ----------
