
---------- Begin Simulation Statistics ----------
final_tick                               70892825626000                       # Number of ticks from beginning of simulation (restored from checkpoints and never reset)
host_inst_rate                                  41193                       # Simulator instruction rate (inst/s)
host_mem_usage                                 793032                       # Number of bytes of host memory used
host_op_rate                                    66026                       # Simulator op (including micro ops) rate (op/s)
host_seconds                                   242.76                       # Real time elapsed on the host
host_tick_rate                               10777620                       # Simulator tick rate (ticks/s)
sim_freq                                 1000000000000                       # Frequency of simulated ticks
sim_insts                                    10000010                       # Number of instructions simulated
sim_ops                                      16028373                       # Number of ops (including micro ops) simulated
sim_seconds                                  0.002616                       # Number of seconds simulated
sim_ticks                                  2616349750                       # Number of ticks simulated
system.cpu.committedInsts                          10                       # Number of instructions committed
system.cpu.committedOps                            14                       # Number of ops (including micro ops) committed
system.cpu.dtb.rdAccesses                           5                       # TLB accesses on read requests
system.cpu.dtb.rdMisses                             0                       # TLB misses on read requests
system.cpu.dtb.wrAccesses                           2                       # TLB accesses on write requests
system.cpu.dtb.wrMisses                             0                       # TLB misses on write requests
system.cpu.idle_fraction                            0                       # Percentage of idle cycles
system.cpu.itb.rdAccesses                           0                       # TLB accesses on read requests
system.cpu.itb.rdMisses                             0                       # TLB misses on read requests
system.cpu.itb.wrAccesses                          15                       # TLB accesses on write requests
system.cpu.itb.wrMisses                             0                       # TLB misses on write requests
system.cpu.not_idle_fraction                        1                       # Percentage of non-idle cycles
system.cpu.numCycles                               19                       # number of cpu cycles simulated
system.cpu.numWorkItemsCompleted                    0                       # number of work items this cpu completed
system.cpu.numWorkItemsStarted                      0                       # number of work items this cpu started
system.cpu.num_busy_cycles                         19                       # Number of busy cycles
system.cpu.num_cc_register_reads                   20                       # number of times the CC registers were read
system.cpu.num_cc_register_writes                   6                       # number of times the CC registers were written
system.cpu.num_conditional_control_insts            0                       # number of instructions that are conditional controls
system.cpu.num_fp_alu_accesses                      0                       # Number of float alu accesses
system.cpu.num_fp_insts                             0                       # number of float instructions
system.cpu.num_fp_register_reads                    0                       # number of times the floating registers were read
system.cpu.num_fp_register_writes                   0                       # number of times the floating registers were written
system.cpu.num_func_calls                           0                       # number of times a function call or return occured
system.cpu.num_idle_cycles                          0                       # Number of idle cycles
system.cpu.num_int_alu_accesses                    14                       # Number of integer alu accesses
system.cpu.num_int_insts                           14                       # number of integer instructions
system.cpu.num_int_register_reads                  41                       # number of times the integer registers were read
system.cpu.num_int_register_writes                 12                       # number of times the integer registers were written
system.cpu.num_load_insts                           5                       # Number of load instructions
system.cpu.num_mem_refs                             7                       # number of memory refs
system.cpu.num_store_insts                          2                       # Number of store instructions
system.cpu.num_vec_alu_accesses                     0                       # Number of vector alu accesses
system.cpu.num_vec_insts                            0                       # number of vector instructions
system.cpu.num_vec_register_reads                   0                       # number of times the vector registers were read
system.cpu.num_vec_register_writes                  0                       # number of times the vector registers were written
system.cpu.op_class::No_OpClass                     0      0.00%      0.00% # Class of executed instruction
system.cpu.op_class::IntAlu                         7     50.00%     50.00% # Class of executed instruction
system.cpu.op_class::IntMult                        0      0.00%     50.00% # Class of executed instruction
system.cpu.op_class::IntDiv                         0      0.00%     50.00% # Class of executed instruction
system.cpu.op_class::FloatAdd                       0      0.00%     50.00% # Class of executed instruction
system.cpu.op_class::FloatCmp                       0      0.00%     50.00% # Class of executed instruction
system.cpu.op_class::FloatCvt                       0      0.00%     50.00% # Class of executed instruction
system.cpu.op_class::FloatMult                      0      0.00%     50.00% # Class of executed instruction
system.cpu.op_class::FloatMultAcc                   0      0.00%     50.00% # Class of executed instruction
system.cpu.op_class::FloatDiv                       0      0.00%     50.00% # Class of executed instruction
system.cpu.op_class::FloatMisc                      0      0.00%     50.00% # Class of executed instruction
system.cpu.op_class::FloatSqrt                      0      0.00%     50.00% # Class of executed instruction
system.cpu.op_class::SimdAdd                        0      0.00%     50.00% # Class of executed instruction
system.cpu.op_class::SimdAddAcc                     0      0.00%     50.00% # Class of executed instruction
system.cpu.op_class::SimdAlu                        0      0.00%     50.00% # Class of executed instruction
system.cpu.op_class::SimdCmp                        0      0.00%     50.00% # Class of executed instruction
system.cpu.op_class::SimdCvt                        0      0.00%     50.00% # Class of executed instruction
system.cpu.op_class::SimdMisc                       0      0.00%     50.00% # Class of executed instruction
system.cpu.op_class::SimdMult                       0      0.00%     50.00% # Class of executed instruction
system.cpu.op_class::SimdMultAcc                    0      0.00%     50.00% # Class of executed instruction
system.cpu.op_class::SimdShift                      0      0.00%     50.00% # Class of executed instruction
system.cpu.op_class::SimdShiftAcc                   0      0.00%     50.00% # Class of executed instruction
system.cpu.op_class::SimdDiv                        0      0.00%     50.00% # Class of executed instruction
system.cpu.op_class::SimdSqrt                       0      0.00%     50.00% # Class of executed instruction
system.cpu.op_class::SimdFloatAdd                   0      0.00%     50.00% # Class of executed instruction
system.cpu.op_class::SimdFloatAlu                   0      0.00%     50.00% # Class of executed instruction
system.cpu.op_class::SimdFloatCmp                   0      0.00%     50.00% # Class of executed instruction
system.cpu.op_class::SimdFloatCvt                   0      0.00%     50.00% # Class of executed instruction
system.cpu.op_class::SimdFloatDiv                   0      0.00%     50.00% # Class of executed instruction
system.cpu.op_class::SimdFloatMisc                  0      0.00%     50.00% # Class of executed instruction
system.cpu.op_class::SimdFloatMult                  0      0.00%     50.00% # Class of executed instruction
system.cpu.op_class::SimdFloatMultAcc               0      0.00%     50.00% # Class of executed instruction
system.cpu.op_class::SimdFloatSqrt                  0      0.00%     50.00% # Class of executed instruction
system.cpu.op_class::SimdReduceAdd                  0      0.00%     50.00% # Class of executed instruction
system.cpu.op_class::SimdReduceAlu                  0      0.00%     50.00% # Class of executed instruction
system.cpu.op_class::SimdReduceCmp                  0      0.00%     50.00% # Class of executed instruction
system.cpu.op_class::SimdFloatReduceAdd             0      0.00%     50.00% # Class of executed instruction
system.cpu.op_class::SimdFloatReduceCmp             0      0.00%     50.00% # Class of executed instruction
system.cpu.op_class::SimdAes                        0      0.00%     50.00% # Class of executed instruction
system.cpu.op_class::SimdAesMix                     0      0.00%     50.00% # Class of executed instruction
system.cpu.op_class::SimdSha1Hash                   0      0.00%     50.00% # Class of executed instruction
system.cpu.op_class::SimdSha1Hash2                  0      0.00%     50.00% # Class of executed instruction
system.cpu.op_class::SimdSha256Hash                 0      0.00%     50.00% # Class of executed instruction
system.cpu.op_class::SimdSha256Hash2                0      0.00%     50.00% # Class of executed instruction
system.cpu.op_class::SimdShaSigma2                  0      0.00%     50.00% # Class of executed instruction
system.cpu.op_class::SimdShaSigma3                  0      0.00%     50.00% # Class of executed instruction
system.cpu.op_class::SimdPredAlu                    0      0.00%     50.00% # Class of executed instruction
system.cpu.op_class::MemRead                        5     35.71%     85.71% # Class of executed instruction
system.cpu.op_class::MemWrite                       2     14.29%    100.00% # Class of executed instruction
system.cpu.op_class::FloatMemRead                   0      0.00%    100.00% # Class of executed instruction
system.cpu.op_class::FloatMemWrite                  0      0.00%    100.00% # Class of executed instruction
system.cpu.op_class::IprAccess                      0      0.00%    100.00% # Class of executed instruction
system.cpu.op_class::InstPrefetch                   0      0.00%    100.00% # Class of executed instruction
system.cpu.op_class::total                         14                       # Class of executed instruction
system.cpu.workload.numSyscalls                     0                       # Number of system calls
system.membus.snoop_filter.hit_multi_requests            0                       # Number of requests hitting in the snoop filter with multiple (>1) holders of the requested data.
system.membus.snoop_filter.hit_multi_snoops            0                       # Number of snoops hitting in the snoop filter with multiple (>1) holders of the requested data.
system.membus.snoop_filter.hit_single_requests            0                       # Number of requests hitting in the snoop filter with a single holder of the requested data.
system.membus.snoop_filter.hit_single_snoops            0                       # Number of snoops hitting in the snoop filter with a single holder of the requested data.
system.membus.snoop_filter.tot_requests          3020                       # Total number of requests made to the snoop filter.
system.membus.snoop_filter.tot_snoops               0                       # Total number of snoops made to the snoop filter.
system.switch_cpus.branchPred.BTBCorrect            0                       # Number of correct BTB predictions (this stat may not work properly.
system.switch_cpus.branchPred.BTBHitPct      0.000000                       # BTB Hit Percentage
system.switch_cpus.branchPred.BTBHits               0                       # Number of BTB hits
system.switch_cpus.branchPred.BTBLookups       617184                       # Number of BTB lookups
system.switch_cpus.branchPred.RASInCorrect            1                       # Number of incorrect RAS predictions.
system.switch_cpus.branchPred.condIncorrect        18601                       # Number of conditional branches incorrect
system.switch_cpus.branchPred.condPredicted       858663                       # Number of conditional branches predicted
system.switch_cpus.branchPred.indirectHits       494852                       # Number of indirect target hits.
system.switch_cpus.branchPred.indirectLookups       617184                       # Number of indirect predictor lookups.
system.switch_cpus.branchPred.indirectMisses       122332                       # Number of indirect misses.
system.switch_cpus.branchPred.lookups          936881                       # Number of BP lookups
system.switch_cpus.branchPred.usedRAS           38783                       # Number of times the RAS was used to get a target.
system.switch_cpus.branchPredindirectMispredicted         2006                       # Number of mispredicted indirect branches.
system.switch_cpus.cc_regfile_reads          14092858                       # number of cc regfile reads
system.switch_cpus.cc_regfile_writes          7118337                       # number of cc regfile writes
system.switch_cpus.commit.amos                      0                       # Number of atomic instructions committed
system.switch_cpus.commit.branchMispredicts        18628                       # The number of times a branch was mispredicted
system.switch_cpus.commit.branches             714318                       # Number of branches committed
system.switch_cpus.commit.bw_lim_events       1276701                       # number cycles where commit BW limit reached
system.switch_cpus.commit.commitSquashedInsts      1181647                       # The number of squashed insts skipped by commit
system.switch_cpus.commit.committedInsts     10000000                       # Number of instructions committed
system.switch_cpus.commit.committedOps       16028359                       # Number of ops (including micro ops) committed
system.switch_cpus.commit.committed_per_cycle::samples      5065815                       # Number of insts commited each cycle
system.switch_cpus.commit.committed_per_cycle::mean     3.164024                       # Number of insts commited each cycle
system.switch_cpus.commit.committed_per_cycle::stdev     3.139651                       # Number of insts commited each cycle
system.switch_cpus.commit.committed_per_cycle::underflows            0      0.00%      0.00% # Number of insts commited each cycle
system.switch_cpus.commit.committed_per_cycle::0       824724     16.28%     16.28% # Number of insts commited each cycle
system.switch_cpus.commit.committed_per_cycle::1      1868355     36.88%     53.16% # Number of insts commited each cycle
system.switch_cpus.commit.committed_per_cycle::2       420307      8.30%     61.46% # Number of insts commited each cycle
system.switch_cpus.commit.committed_per_cycle::3       187051      3.69%     65.15% # Number of insts commited each cycle
system.switch_cpus.commit.committed_per_cycle::4       136900      2.70%     67.85% # Number of insts commited each cycle
system.switch_cpus.commit.committed_per_cycle::5       165425      3.27%     71.12% # Number of insts commited each cycle
system.switch_cpus.commit.committed_per_cycle::6       134560      2.66%     73.78% # Number of insts commited each cycle
system.switch_cpus.commit.committed_per_cycle::7        51792      1.02%     74.80% # Number of insts commited each cycle
system.switch_cpus.commit.committed_per_cycle::8      1276701     25.20%    100.00% # Number of insts commited each cycle
system.switch_cpus.commit.committed_per_cycle::overflows            0      0.00%    100.00% # Number of insts commited each cycle
system.switch_cpus.commit.committed_per_cycle::min_value            0                       # Number of insts commited each cycle
system.switch_cpus.commit.committed_per_cycle::max_value            8                       # Number of insts commited each cycle
system.switch_cpus.commit.committed_per_cycle::total      5065815                       # Number of insts commited each cycle
system.switch_cpus.commit.fp_insts            1417974                       # Number of committed floating point instructions.
system.switch_cpus.commit.function_calls        31902                       # Number of function calls committed.
system.switch_cpus.commit.int_insts          14812880                       # Number of committed integer instructions.
system.switch_cpus.commit.loads               3609577                       # Number of loads committed
system.switch_cpus.commit.membars                   0                       # Number of memory barriers committed
system.switch_cpus.commit.op_class_0::No_OpClass        95071      0.59%      0.59% # Class of committed instruction
system.switch_cpus.commit.op_class_0::IntAlu      9822899     61.28%     61.88% # Class of committed instruction
system.switch_cpus.commit.op_class_0::IntMult        84240      0.53%     62.40% # Class of committed instruction
system.switch_cpus.commit.op_class_0::IntDiv            0      0.00%     62.40% # Class of committed instruction
system.switch_cpus.commit.op_class_0::FloatAdd        32039      0.20%     62.60% # Class of committed instruction
system.switch_cpus.commit.op_class_0::FloatCmp            0      0.00%     62.60% # Class of committed instruction
system.switch_cpus.commit.op_class_0::FloatCvt            0      0.00%     62.60% # Class of committed instruction
system.switch_cpus.commit.op_class_0::FloatMult            0      0.00%     62.60% # Class of committed instruction
system.switch_cpus.commit.op_class_0::FloatMultAcc            0      0.00%     62.60% # Class of committed instruction
system.switch_cpus.commit.op_class_0::FloatDiv            0      0.00%     62.60% # Class of committed instruction
system.switch_cpus.commit.op_class_0::FloatMisc            0      0.00%     62.60% # Class of committed instruction
system.switch_cpus.commit.op_class_0::FloatSqrt            0      0.00%     62.60% # Class of committed instruction
system.switch_cpus.commit.op_class_0::SimdAdd        21142      0.13%     62.73% # Class of committed instruction
system.switch_cpus.commit.op_class_0::SimdAddAcc            0      0.00%     62.73% # Class of committed instruction
system.switch_cpus.commit.op_class_0::SimdAlu       327752      2.04%     64.78% # Class of committed instruction
system.switch_cpus.commit.op_class_0::SimdCmp            0      0.00%     64.78% # Class of committed instruction
system.switch_cpus.commit.op_class_0::SimdCvt       126470      0.79%     65.57% # Class of committed instruction
system.switch_cpus.commit.op_class_0::SimdMisc       158042      0.99%     66.55% # Class of committed instruction
system.switch_cpus.commit.op_class_0::SimdMult            0      0.00%     66.55% # Class of committed instruction
system.switch_cpus.commit.op_class_0::SimdMultAcc            0      0.00%     66.55% # Class of committed instruction
system.switch_cpus.commit.op_class_0::SimdShift        63426      0.40%     66.95% # Class of committed instruction
system.switch_cpus.commit.op_class_0::SimdShiftAcc            0      0.00%     66.95% # Class of committed instruction
system.switch_cpus.commit.op_class_0::SimdDiv            0      0.00%     66.95% # Class of committed instruction
system.switch_cpus.commit.op_class_0::SimdSqrt            0      0.00%     66.95% # Class of committed instruction
system.switch_cpus.commit.op_class_0::SimdFloatAdd       107090      0.67%     67.62% # Class of committed instruction
system.switch_cpus.commit.op_class_0::SimdFloatAlu            0      0.00%     67.62% # Class of committed instruction
system.switch_cpus.commit.op_class_0::SimdFloatCmp           27      0.00%     67.62% # Class of committed instruction
system.switch_cpus.commit.op_class_0::SimdFloatCvt       149566      0.93%     68.55% # Class of committed instruction
system.switch_cpus.commit.op_class_0::SimdFloatDiv        21087      0.13%     68.68% # Class of committed instruction
system.switch_cpus.commit.op_class_0::SimdFloatMisc            0      0.00%     68.68% # Class of committed instruction
system.switch_cpus.commit.op_class_0::SimdFloatMult        10842      0.07%     68.75% # Class of committed instruction
system.switch_cpus.commit.op_class_0::SimdFloatMultAcc            0      0.00%     68.75% # Class of committed instruction
system.switch_cpus.commit.op_class_0::SimdFloatSqrt            0      0.00%     68.75% # Class of committed instruction
system.switch_cpus.commit.op_class_0::SimdReduceAdd            0      0.00%     68.75% # Class of committed instruction
system.switch_cpus.commit.op_class_0::SimdReduceAlu            0      0.00%     68.75% # Class of committed instruction
system.switch_cpus.commit.op_class_0::SimdReduceCmp            0      0.00%     68.75% # Class of committed instruction
system.switch_cpus.commit.op_class_0::SimdFloatReduceAdd            0      0.00%     68.75% # Class of committed instruction
system.switch_cpus.commit.op_class_0::SimdFloatReduceCmp            0      0.00%     68.75% # Class of committed instruction
system.switch_cpus.commit.op_class_0::SimdAes            0      0.00%     68.75% # Class of committed instruction
system.switch_cpus.commit.op_class_0::SimdAesMix            0      0.00%     68.75% # Class of committed instruction
system.switch_cpus.commit.op_class_0::SimdSha1Hash            0      0.00%     68.75% # Class of committed instruction
system.switch_cpus.commit.op_class_0::SimdSha1Hash2            0      0.00%     68.75% # Class of committed instruction
system.switch_cpus.commit.op_class_0::SimdSha256Hash            0      0.00%     68.75% # Class of committed instruction
system.switch_cpus.commit.op_class_0::SimdSha256Hash2            0      0.00%     68.75% # Class of committed instruction
system.switch_cpus.commit.op_class_0::SimdShaSigma2            0      0.00%     68.75% # Class of committed instruction
system.switch_cpus.commit.op_class_0::SimdShaSigma3            0      0.00%     68.75% # Class of committed instruction
system.switch_cpus.commit.op_class_0::SimdPredAlu            0      0.00%     68.75% # Class of committed instruction
system.switch_cpus.commit.op_class_0::MemRead      3386158     21.13%     89.88% # Class of committed instruction
system.switch_cpus.commit.op_class_0::MemWrite      1398812      8.73%     98.60% # Class of committed instruction
system.switch_cpus.commit.op_class_0::FloatMemRead       223419      1.39%    100.00% # Class of committed instruction
system.switch_cpus.commit.op_class_0::FloatMemWrite          277      0.00%    100.00% # Class of committed instruction
system.switch_cpus.commit.op_class_0::IprAccess            0      0.00%    100.00% # Class of committed instruction
system.switch_cpus.commit.op_class_0::InstPrefetch            0      0.00%    100.00% # Class of committed instruction
system.switch_cpus.commit.op_class_0::total     16028359                       # Class of committed instruction
system.switch_cpus.commit.refs                5008666                       # Number of memory references committed
system.switch_cpus.commit.swp_count                 0                       # Number of s/w prefetches committed
system.switch_cpus.commit.vec_insts                 0                       # Number of committed Vector instructions.
system.switch_cpus.committedInsts            10000000                       # Number of Instructions Simulated
system.switch_cpus.committedOps              16028359                       # Number of Ops (including micro ops) Simulated
system.switch_cpus.cpi                       0.523268                       # CPI: Cycles Per Instruction
system.switch_cpus.cpi_total                 0.523268                       # CPI: Total CPI of All Threads
system.switch_cpus.decode.BlockedCycles       2338656                       # Number of cycles decode is blocked
system.switch_cpus.decode.DecodedInsts       17537595                       # Number of instructions handled by decode
system.switch_cpus.decode.IdleCycles           558348                       # Number of cycles decode is idle
system.switch_cpus.decode.RunCycles           1511277                       # Number of cycles decode is running
system.switch_cpus.decode.SquashCycles          18853                       # Number of cycles decode is squashing
system.switch_cpus.decode.UnblockCycles        796372                       # Number of cycles decode is unblocking
system.switch_cpus.dtb.rdAccesses             3687331                       # TLB accesses on read requests
system.switch_cpus.dtb.rdMisses                    73                       # TLB misses on read requests
system.switch_cpus.dtb.wrAccesses             1408785                       # TLB accesses on write requests
system.switch_cpus.dtb.wrMisses                    95                       # TLB misses on write requests
system.switch_cpus.fetch.Branches              936881                       # Number of branches that fetch encountered
system.switch_cpus.fetch.CacheLines            842470                       # Number of cache lines fetched
system.switch_cpus.fetch.Cycles               4349703                       # Number of cycles fetch has run and was not squashing or blocked
system.switch_cpus.fetch.IcacheSquashes          3136                       # Number of outstanding Icache misses that were squashed
system.switch_cpus.fetch.Insts               10904140                       # Number of instructions fetch has processed
system.switch_cpus.fetch.MiscStallCycles           27                       # Number of cycles fetch has spent waiting on interrupts, or bad addresses, or out of MSHRs
system.switch_cpus.fetch.PendingTrapStallCycles          164                       # Number of stall cycles due to pending traps
system.switch_cpus.fetch.SquashCycles           37706                       # Number of cycles fetch has spent squashing
system.switch_cpus.fetch.branchRate          0.179044                       # Number of branch fetches per cycle
system.switch_cpus.fetch.icacheStallCycles       854765                       # Number of cycles fetch is stalled on an Icache miss
system.switch_cpus.fetch.predictedBranches       533635                       # Number of branches that fetch has predicted taken
system.switch_cpus.fetch.rate                2.083854                       # Number of inst fetches per cycle
system.switch_cpus.fetch.rateDist::samples      5223512                       # Number of instructions fetched each cycle (Total)
system.switch_cpus.fetch.rateDist::mean      3.399858                       # Number of instructions fetched each cycle (Total)
system.switch_cpus.fetch.rateDist::stdev     3.550636                       # Number of instructions fetched each cycle (Total)
system.switch_cpus.fetch.rateDist::underflows            0      0.00%      0.00% # Number of instructions fetched each cycle (Total)
system.switch_cpus.fetch.rateDist::0          2425121     46.43%     46.43% # Number of instructions fetched each cycle (Total)
system.switch_cpus.fetch.rateDist::1           138423      2.65%     49.08% # Number of instructions fetched each cycle (Total)
system.switch_cpus.fetch.rateDist::2           107684      2.06%     51.14% # Number of instructions fetched each cycle (Total)
system.switch_cpus.fetch.rateDist::3           148254      2.84%     53.98% # Number of instructions fetched each cycle (Total)
system.switch_cpus.fetch.rateDist::4           182779      3.50%     57.48% # Number of instructions fetched each cycle (Total)
system.switch_cpus.fetch.rateDist::5           334174      6.40%     63.87% # Number of instructions fetched each cycle (Total)
system.switch_cpus.fetch.rateDist::6           172901      3.31%     67.18% # Number of instructions fetched each cycle (Total)
system.switch_cpus.fetch.rateDist::7           192156      3.68%     70.86% # Number of instructions fetched each cycle (Total)
system.switch_cpus.fetch.rateDist::8          1522020     29.14%    100.00% # Number of instructions fetched each cycle (Total)
system.switch_cpus.fetch.rateDist::overflows            0      0.00%    100.00% # Number of instructions fetched each cycle (Total)
system.switch_cpus.fetch.rateDist::min_value            0                       # Number of instructions fetched each cycle (Total)
system.switch_cpus.fetch.rateDist::max_value            8                       # Number of instructions fetched each cycle (Total)
system.switch_cpus.fetch.rateDist::total      5223512                       # Number of instructions fetched each cycle (Total)
system.switch_cpus.fp_regfile_reads           2734732                       # number of floating regfile reads
system.switch_cpus.fp_regfile_writes          1362081                       # number of floating regfile writes
system.switch_cpus.idleCycles                    9167                       # Total number of cycles that the CPU has spent unscheduled due to idling
system.switch_cpus.iew.branchMispredicts        32331                       # Number of branch mispredicts detected at execute
system.switch_cpus.iew.exec_branches           776163                       # Number of branches executed
system.switch_cpus.iew.exec_nop                     0                       # number of nop insts executed
system.switch_cpus.iew.exec_rate             3.195458                       # Inst execution rate
system.switch_cpus.iew.exec_refs              5090696                       # number of memory reference insts executed
system.switch_cpus.iew.exec_stores            1408785                       # Number of stores executed
system.switch_cpus.iew.exec_swp                     0                       # number of swp insts executed
system.switch_cpus.iew.iewBlockCycles          139774                       # Number of cycles IEW is blocking
system.switch_cpus.iew.iewDispLoadInsts       3712636                       # Number of dispatched load instructions
system.switch_cpus.iew.iewDispNonSpecInsts            4                       # Number of dispatched non-speculative instructions
system.switch_cpus.iew.iewDispSquashedInsts          331                       # Number of squashed instructions skipped by dispatch
system.switch_cpus.iew.iewDispStoreInsts      1422634                       # Number of dispatched store instructions
system.switch_cpus.iew.iewDispatchedInsts     17210041                       # Number of instructions dispatched to IQ
system.switch_cpus.iew.iewExecLoadInsts       3681911                       # Number of load instructions executed
system.switch_cpus.iew.iewExecSquashedInsts        29393                       # Number of squashed instructions skipped in execute
system.switch_cpus.iew.iewExecutedInsts      16720807                       # Number of executed instructions
system.switch_cpus.iew.iewIQFullEvents             92                       # Number of times the IQ has become full, causing a stall
system.switch_cpus.iew.iewIdleCycles                0                       # Number of cycles IEW is idle
system.switch_cpus.iew.iewLSQFullEvents         43746                       # Number of times the LSQ has become full, causing a stall
system.switch_cpus.iew.iewSquashCycles          18853                       # Number of cycles IEW is squashing
system.switch_cpus.iew.iewUnblockCycles         44526                       # Number of cycles IEW is unblocking
system.switch_cpus.iew.lsq.thread0.blockedLoads            0                       # Number of blocked loads due to partial load-store forwarding
system.switch_cpus.iew.lsq.thread0.cacheBlocked          155                       # Number of times an access to memory failed due to the cache being blocked
system.switch_cpus.iew.lsq.thread0.forwLoads       389776                       # Number of loads that had data forwarded from stores
system.switch_cpus.iew.lsq.thread0.ignoredResponses           34                       # Number of memory responses ignored because the instruction is squashed
system.switch_cpus.iew.lsq.thread0.invAddrLoads            0                       # Number of loads ignored due to an invalid address
system.switch_cpus.iew.lsq.thread0.invAddrSwpfs            0                       # Number of software prefetches ignored due to an invalid address
system.switch_cpus.iew.lsq.thread0.memOrderViolation          252                       # Number of memory ordering violations
system.switch_cpus.iew.lsq.thread0.rescheduledLoads            0                       # Number of loads that were rescheduled
system.switch_cpus.iew.lsq.thread0.squashedLoads       103047                       # Number of loads squashed
system.switch_cpus.iew.lsq.thread0.squashedStores        23535                       # Number of stores squashed
system.switch_cpus.iew.memOrderViolationEvents          252                       # Number of memory order violations
system.switch_cpus.iew.predictedNotTakenIncorrect        27778                       # Number of branches that were predicted not taken incorrectly
system.switch_cpus.iew.predictedTakenIncorrect         4553                       # Number of branches that were predicted taken incorrectly
system.switch_cpus.iew.wb_consumers          26919408                       # num instructions consuming a value
system.switch_cpus.iew.wb_count              16705506                       # cumulative count of insts written-back
system.switch_cpus.iew.wb_fanout             0.497644                       # average fanout of values written-back
system.switch_cpus.iew.wb_producers          13396281                       # num instructions producing a value
system.switch_cpus.iew.wb_rate               3.192534                       # insts written-back per cycle
system.switch_cpus.iew.wb_sent               16711942                       # cumulative count of insts sent to commit
system.switch_cpus.int_regfile_reads         28975461                       # number of integer regfile reads
system.switch_cpus.int_regfile_writes        13055855                       # number of integer regfile writes
system.switch_cpus.ipc                       1.911067                       # IPC: Instructions Per Cycle
system.switch_cpus.ipc_total                 1.911067                       # IPC: Total IPC of All Threads
system.switch_cpus.iq.FU_type_0::No_OpClass        99733      0.60%      0.60% # Type of FU issued
system.switch_cpus.iq.FU_type_0::IntAlu      10365787     61.88%     62.48% # Type of FU issued
system.switch_cpus.iq.FU_type_0::IntMult        85849      0.51%     62.99% # Type of FU issued
system.switch_cpus.iq.FU_type_0::IntDiv             0      0.00%     62.99% # Type of FU issued
system.switch_cpus.iq.FU_type_0::FloatAdd        34543      0.21%     63.20% # Type of FU issued
system.switch_cpus.iq.FU_type_0::FloatCmp            0      0.00%     63.20% # Type of FU issued
system.switch_cpus.iq.FU_type_0::FloatCvt            0      0.00%     63.20% # Type of FU issued
system.switch_cpus.iq.FU_type_0::FloatMult            0      0.00%     63.20% # Type of FU issued
system.switch_cpus.iq.FU_type_0::FloatMultAcc            0      0.00%     63.20% # Type of FU issued
system.switch_cpus.iq.FU_type_0::FloatDiv            0      0.00%     63.20% # Type of FU issued
system.switch_cpus.iq.FU_type_0::FloatMisc            0      0.00%     63.20% # Type of FU issued
system.switch_cpus.iq.FU_type_0::FloatSqrt            0      0.00%     63.20% # Type of FU issued
system.switch_cpus.iq.FU_type_0::SimdAdd        21142      0.13%     63.32% # Type of FU issued
system.switch_cpus.iq.FU_type_0::SimdAddAcc            0      0.00%     63.32% # Type of FU issued
system.switch_cpus.iq.FU_type_0::SimdAlu       341111      2.04%     65.36% # Type of FU issued
system.switch_cpus.iq.FU_type_0::SimdCmp            0      0.00%     65.36% # Type of FU issued
system.switch_cpus.iq.FU_type_0::SimdCvt       128694      0.77%     66.13% # Type of FU issued
system.switch_cpus.iq.FU_type_0::SimdMisc       159878      0.95%     67.08% # Type of FU issued
system.switch_cpus.iq.FU_type_0::SimdMult            0      0.00%     67.08% # Type of FU issued
system.switch_cpus.iq.FU_type_0::SimdMultAcc            0      0.00%     67.08% # Type of FU issued
system.switch_cpus.iq.FU_type_0::SimdShift        63477      0.38%     67.46% # Type of FU issued
system.switch_cpus.iq.FU_type_0::SimdShiftAcc            0      0.00%     67.46% # Type of FU issued
system.switch_cpus.iq.FU_type_0::SimdDiv            0      0.00%     67.46% # Type of FU issued
system.switch_cpus.iq.FU_type_0::SimdSqrt            0      0.00%     67.46% # Type of FU issued
system.switch_cpus.iq.FU_type_0::SimdFloatAdd       138883      0.83%     68.29% # Type of FU issued
system.switch_cpus.iq.FU_type_0::SimdFloatAlu            0      0.00%     68.29% # Type of FU issued
system.switch_cpus.iq.FU_type_0::SimdFloatCmp           45      0.00%     68.29% # Type of FU issued
system.switch_cpus.iq.FU_type_0::SimdFloatCvt       175677      1.05%     69.34% # Type of FU issued
system.switch_cpus.iq.FU_type_0::SimdFloatDiv        23003      0.14%     69.48% # Type of FU issued
system.switch_cpus.iq.FU_type_0::SimdFloatMisc            0      0.00%     69.48% # Type of FU issued
system.switch_cpus.iq.FU_type_0::SimdFloatMult        12796      0.08%     69.56% # Type of FU issued
system.switch_cpus.iq.FU_type_0::SimdFloatMultAcc            0      0.00%     69.56% # Type of FU issued
system.switch_cpus.iq.FU_type_0::SimdFloatSqrt            0      0.00%     69.56% # Type of FU issued
system.switch_cpus.iq.FU_type_0::SimdReduceAdd            0      0.00%     69.56% # Type of FU issued
system.switch_cpus.iq.FU_type_0::SimdReduceAlu            0      0.00%     69.56% # Type of FU issued
system.switch_cpus.iq.FU_type_0::SimdReduceCmp            0      0.00%     69.56% # Type of FU issued
system.switch_cpus.iq.FU_type_0::SimdFloatReduceAdd            0      0.00%     69.56% # Type of FU issued
system.switch_cpus.iq.FU_type_0::SimdFloatReduceCmp            0      0.00%     69.56% # Type of FU issued
system.switch_cpus.iq.FU_type_0::SimdAes            0      0.00%     69.56% # Type of FU issued
system.switch_cpus.iq.FU_type_0::SimdAesMix            0      0.00%     69.56% # Type of FU issued
system.switch_cpus.iq.FU_type_0::SimdSha1Hash            0      0.00%     69.56% # Type of FU issued
system.switch_cpus.iq.FU_type_0::SimdSha1Hash2            0      0.00%     69.56% # Type of FU issued
system.switch_cpus.iq.FU_type_0::SimdSha256Hash            0      0.00%     69.56% # Type of FU issued
system.switch_cpus.iq.FU_type_0::SimdSha256Hash2            0      0.00%     69.56% # Type of FU issued
system.switch_cpus.iq.FU_type_0::SimdShaSigma2            0      0.00%     69.56% # Type of FU issued
system.switch_cpus.iq.FU_type_0::SimdShaSigma3            0      0.00%     69.56% # Type of FU issued
system.switch_cpus.iq.FU_type_0::SimdPredAlu            0      0.00%     69.56% # Type of FU issued
system.switch_cpus.iq.FU_type_0::MemRead      3410879     20.36%     89.92% # Type of FU issued
system.switch_cpus.iq.FU_type_0::MemWrite      1409879      8.42%     98.34% # Type of FU issued
system.switch_cpus.iq.FU_type_0::FloatMemRead       278438      1.66%    100.00% # Type of FU issued
system.switch_cpus.iq.FU_type_0::FloatMemWrite          386      0.00%    100.00% # Type of FU issued
system.switch_cpus.iq.FU_type_0::IprAccess            0      0.00%    100.00% # Type of FU issued
system.switch_cpus.iq.FU_type_0::InstPrefetch            0      0.00%    100.00% # Type of FU issued
system.switch_cpus.iq.FU_type_0::total       16750200                       # Type of FU issued
system.switch_cpus.iq.fp_alu_accesses         1576998                       # Number of floating point alu accesses
system.switch_cpus.iq.fp_inst_queue_reads      3133684                       # Number of floating instruction queue reads
system.switch_cpus.iq.fp_inst_queue_wakeup_accesses      1539795                       # Number of floating instruction queue wakeup accesses
system.switch_cpus.iq.fp_inst_queue_writes      1885548                       # Number of floating instruction queue writes
system.switch_cpus.iq.fu_busy_cnt              194055                       # FU busy when requested
system.switch_cpus.iq.fu_busy_rate           0.011585                       # FU busy rate (busy events/executed inst)
system.switch_cpus.iq.fu_full::No_OpClass            0      0.00%      0.00% # attempts to use FU when none available
system.switch_cpus.iq.fu_full::IntAlu          115757     59.65%     59.65% # attempts to use FU when none available
system.switch_cpus.iq.fu_full::IntMult              0      0.00%     59.65% # attempts to use FU when none available
system.switch_cpus.iq.fu_full::IntDiv               0      0.00%     59.65% # attempts to use FU when none available
system.switch_cpus.iq.fu_full::FloatAdd             0      0.00%     59.65% # attempts to use FU when none available
system.switch_cpus.iq.fu_full::FloatCmp             0      0.00%     59.65% # attempts to use FU when none available
system.switch_cpus.iq.fu_full::FloatCvt             0      0.00%     59.65% # attempts to use FU when none available
system.switch_cpus.iq.fu_full::FloatMult            0      0.00%     59.65% # attempts to use FU when none available
system.switch_cpus.iq.fu_full::FloatMultAcc            0      0.00%     59.65% # attempts to use FU when none available
system.switch_cpus.iq.fu_full::FloatDiv             0      0.00%     59.65% # attempts to use FU when none available
system.switch_cpus.iq.fu_full::FloatMisc            0      0.00%     59.65% # attempts to use FU when none available
system.switch_cpus.iq.fu_full::FloatSqrt            0      0.00%     59.65% # attempts to use FU when none available
system.switch_cpus.iq.fu_full::SimdAdd              0      0.00%     59.65% # attempts to use FU when none available
system.switch_cpus.iq.fu_full::SimdAddAcc            0      0.00%     59.65% # attempts to use FU when none available
system.switch_cpus.iq.fu_full::SimdAlu             57      0.03%     59.68% # attempts to use FU when none available
system.switch_cpus.iq.fu_full::SimdCmp              0      0.00%     59.68% # attempts to use FU when none available
system.switch_cpus.iq.fu_full::SimdCvt           3394      1.75%     61.43% # attempts to use FU when none available
system.switch_cpus.iq.fu_full::SimdMisc            18      0.01%     61.44% # attempts to use FU when none available
system.switch_cpus.iq.fu_full::SimdMult             0      0.00%     61.44% # attempts to use FU when none available
system.switch_cpus.iq.fu_full::SimdMultAcc            0      0.00%     61.44% # attempts to use FU when none available
system.switch_cpus.iq.fu_full::SimdShift            0      0.00%     61.44% # attempts to use FU when none available
system.switch_cpus.iq.fu_full::SimdShiftAcc            0      0.00%     61.44% # attempts to use FU when none available
system.switch_cpus.iq.fu_full::SimdDiv              0      0.00%     61.44% # attempts to use FU when none available
system.switch_cpus.iq.fu_full::SimdSqrt             0      0.00%     61.44% # attempts to use FU when none available
system.switch_cpus.iq.fu_full::SimdFloatAdd         3008      1.55%     62.99% # attempts to use FU when none available
system.switch_cpus.iq.fu_full::SimdFloatAlu            0      0.00%     62.99% # attempts to use FU when none available
system.switch_cpus.iq.fu_full::SimdFloatCmp            0      0.00%     62.99% # attempts to use FU when none available
system.switch_cpus.iq.fu_full::SimdFloatCvt        10003      5.15%     68.14% # attempts to use FU when none available
system.switch_cpus.iq.fu_full::SimdFloatDiv            0      0.00%     68.14% # attempts to use FU when none available
system.switch_cpus.iq.fu_full::SimdFloatMisc            0      0.00%     68.14% # attempts to use FU when none available
system.switch_cpus.iq.fu_full::SimdFloatMult            0      0.00%     68.14% # attempts to use FU when none available
system.switch_cpus.iq.fu_full::SimdFloatMultAcc            0      0.00%     68.14% # attempts to use FU when none available
system.switch_cpus.iq.fu_full::SimdFloatSqrt            0      0.00%     68.14% # attempts to use FU when none available
system.switch_cpus.iq.fu_full::SimdReduceAdd            0      0.00%     68.14% # attempts to use FU when none available
system.switch_cpus.iq.fu_full::SimdReduceAlu            0      0.00%     68.14% # attempts to use FU when none available
system.switch_cpus.iq.fu_full::SimdReduceCmp            0      0.00%     68.14% # attempts to use FU when none available
system.switch_cpus.iq.fu_full::SimdFloatReduceAdd            0      0.00%     68.14% # attempts to use FU when none available
system.switch_cpus.iq.fu_full::SimdFloatReduceCmp            0      0.00%     68.14% # attempts to use FU when none available
system.switch_cpus.iq.fu_full::SimdAes              0      0.00%     68.14% # attempts to use FU when none available
system.switch_cpus.iq.fu_full::SimdAesMix            0      0.00%     68.14% # attempts to use FU when none available
system.switch_cpus.iq.fu_full::SimdSha1Hash            0      0.00%     68.14% # attempts to use FU when none available
system.switch_cpus.iq.fu_full::SimdSha1Hash2            0      0.00%     68.14% # attempts to use FU when none available
system.switch_cpus.iq.fu_full::SimdSha256Hash            0      0.00%     68.14% # attempts to use FU when none available
system.switch_cpus.iq.fu_full::SimdSha256Hash2            0      0.00%     68.14% # attempts to use FU when none available
system.switch_cpus.iq.fu_full::SimdShaSigma2            0      0.00%     68.14% # attempts to use FU when none available
system.switch_cpus.iq.fu_full::SimdShaSigma3            0      0.00%     68.14% # attempts to use FU when none available
system.switch_cpus.iq.fu_full::SimdPredAlu            0      0.00%     68.14% # attempts to use FU when none available
system.switch_cpus.iq.fu_full::MemRead          56389     29.06%     97.20% # attempts to use FU when none available
system.switch_cpus.iq.fu_full::MemWrite          1352      0.70%     97.90% # attempts to use FU when none available
system.switch_cpus.iq.fu_full::FloatMemRead         4075      2.10%    100.00% # attempts to use FU when none available
system.switch_cpus.iq.fu_full::FloatMemWrite            2      0.00%    100.00% # attempts to use FU when none available
system.switch_cpus.iq.fu_full::IprAccess            0      0.00%    100.00% # attempts to use FU when none available
system.switch_cpus.iq.fu_full::InstPrefetch            0      0.00%    100.00% # attempts to use FU when none available
system.switch_cpus.iq.int_alu_accesses       15267524                       # Number of integer alu accesses
system.switch_cpus.iq.int_inst_queue_reads     35861864                       # Number of integer instruction queue reads
system.switch_cpus.iq.int_inst_queue_wakeup_accesses     15165711                       # Number of integer instruction queue wakeup accesses
system.switch_cpus.iq.int_inst_queue_writes     16506371                       # Number of integer instruction queue writes
system.switch_cpus.iq.iqInstsAdded           17210027                       # Number of instructions added to the IQ (excludes non-spec)
system.switch_cpus.iq.iqInstsIssued          16750200                       # Number of instructions issued
system.switch_cpus.iq.iqNonSpecInstsAdded           14                       # Number of non-speculative instructions added to the IQ
system.switch_cpus.iq.iqSquashedInstsExamined      1181626                       # Number of squashed instructions iterated over during squash; mainly for profiling
system.switch_cpus.iq.iqSquashedInstsIssued        77581                       # Number of squashed instructions issued
system.switch_cpus.iq.iqSquashedNonSpecRemoved           14                       # Number of squashed non-spec instructions that were removed
system.switch_cpus.iq.iqSquashedOperandsExamined      1714257                       # Number of squashed operands that are examined and possibly removed from graph
system.switch_cpus.iq.issued_per_cycle::samples      5223512                       # Number of insts issued each cycle
system.switch_cpus.iq.issued_per_cycle::mean     3.206693                       # Number of insts issued each cycle
system.switch_cpus.iq.issued_per_cycle::stdev     2.250130                       # Number of insts issued each cycle
system.switch_cpus.iq.issued_per_cycle::underflows            0      0.00%      0.00% # Number of insts issued each cycle
system.switch_cpus.iq.issued_per_cycle::0       727625     13.93%     13.93% # Number of insts issued each cycle
system.switch_cpus.iq.issued_per_cycle::1       590206     11.30%     25.23% # Number of insts issued each cycle
system.switch_cpus.iq.issued_per_cycle::2       878508     16.82%     42.05% # Number of insts issued each cycle
system.switch_cpus.iq.issued_per_cycle::3       809600     15.50%     57.55% # Number of insts issued each cycle
system.switch_cpus.iq.issued_per_cycle::4       752668     14.41%     71.96% # Number of insts issued each cycle
system.switch_cpus.iq.issued_per_cycle::5       603108     11.55%     83.50% # Number of insts issued each cycle
system.switch_cpus.iq.issued_per_cycle::6       344969      6.60%     90.11% # Number of insts issued each cycle
system.switch_cpus.iq.issued_per_cycle::7       256472      4.91%     95.02% # Number of insts issued each cycle
system.switch_cpus.iq.issued_per_cycle::8       260356      4.98%    100.00% # Number of insts issued each cycle
system.switch_cpus.iq.issued_per_cycle::overflows            0      0.00%    100.00% # Number of insts issued each cycle
system.switch_cpus.iq.issued_per_cycle::min_value            0                       # Number of insts issued each cycle
system.switch_cpus.iq.issued_per_cycle::max_value            8                       # Number of insts issued each cycle
system.switch_cpus.iq.issued_per_cycle::total      5223512                       # Number of insts issued each cycle
system.switch_cpus.iq.rate                   3.201075                       # Inst issue rate
system.switch_cpus.iq.vec_alu_accesses              0                       # Number of vector alu accesses
system.switch_cpus.iq.vec_inst_queue_reads            0                       # Number of vector instruction queue reads
system.switch_cpus.iq.vec_inst_queue_wakeup_accesses            0                       # Number of vector instruction queue wakeup accesses
system.switch_cpus.iq.vec_inst_queue_writes            0                       # Number of vector instruction queue writes
system.switch_cpus.itb.rdAccesses                   0                       # TLB accesses on read requests
system.switch_cpus.itb.rdMisses                     0                       # TLB misses on read requests
system.switch_cpus.itb.wrAccesses              842498                       # TLB accesses on write requests
system.switch_cpus.itb.wrMisses                    44                       # TLB misses on write requests
system.switch_cpus.memDep0.conflictingLoads       406011                       # Number of conflicting loads.
system.switch_cpus.memDep0.conflictingStores       291731                       # Number of conflicting stores.
system.switch_cpus.memDep0.insertedLoads      3712636                       # Number of loads inserted to the mem dependence unit.
system.switch_cpus.memDep0.insertedStores      1422634                       # Number of stores inserted to the mem dependence unit.
system.switch_cpus.misc_regfile_reads         6711924                       # number of misc regfile reads
system.switch_cpus.misc_regfile_writes              1                       # number of misc regfile writes
system.switch_cpus.numCycles                  5232679                       # number of cpu cycles simulated
system.switch_cpus.numWorkItemsCompleted            0                       # number of work items this cpu completed
system.switch_cpus.numWorkItemsStarted              0                       # number of work items this cpu started
system.switch_cpus.rename.BlockCycles          214433                       # Number of cycles rename is blocking
system.switch_cpus.rename.CommittedMaps      20724563                       # Number of HB maps that are committed
system.switch_cpus.rename.IQFullEvents         133607                       # Number of times rename has blocked due to IQ full
system.switch_cpus.rename.IdleCycles           869305                       # Number of cycles rename is idle
system.switch_cpus.rename.LQFullEvents         475041                       # Number of times rename has blocked due to LQ full
system.switch_cpus.rename.ROBFullEvents          2123                       # Number of times rename has blocked due to ROB full
system.switch_cpus.rename.RenameLookups      54780043                       # Number of register rename lookups that rename has made
system.switch_cpus.rename.RenamedInsts       17428688                       # Number of instructions processed by rename
system.switch_cpus.rename.RenamedOperands     22403017                       # Number of destination operands rename has renamed
system.switch_cpus.rename.RunCycles           1986325                       # Number of cycles rename is running
system.switch_cpus.rename.SQFullEvents        1264237                       # Number of times rename has blocked due to SQ full
system.switch_cpus.rename.SquashCycles          18853                       # Number of cycles rename is squashing
system.switch_cpus.rename.UnblockCycles       2134590                       # Number of cycles rename is unblocking
system.switch_cpus.rename.UndoneMaps          1678373                       # Number of HB maps that are undone due to squashing
system.switch_cpus.rename.fp_rename_lookups      2997853                       # Number of floating rename lookups
system.switch_cpus.rename.int_rename_lookups     29932317                       # Number of integer rename lookups
system.switch_cpus.rename.serializeStallCycles            0                       # count of cycles rename stalled for serializing inst
system.switch_cpus.rename.serializingInsts            0                       # count of serializing insts renamed
system.switch_cpus.rename.skidInsts           4112328                       # count of insts added to the skid buffer
system.switch_cpus.rename.tempSerializingInsts            0                       # count of temporary serializing insts renamed
system.switch_cpus.rob.rob_reads             20999120                       # The number of ROB reads
system.switch_cpus.rob.rob_writes            34578328                       # The number of ROB writes
system.switch_cpus.timesIdled                     134                       # Number of times that the entire CPU went into an idle state and unscheduled itself
system.tol2bus.snoop_filter.hit_multi_requests            0                       # Number of requests hitting in the snoop filter with multiple (>1) holders of the requested data.
system.tol2bus.snoop_filter.hit_multi_snoops            0                       # Number of snoops hitting in the snoop filter with multiple (>1) holders of the requested data.
system.tol2bus.snoop_filter.hit_single_requests        24550                       # Number of requests hitting in the snoop filter with a single holder of the requested data.
system.tol2bus.snoop_filter.hit_single_snoops            0                       # Number of snoops hitting in the snoop filter with a single holder of the requested data.
system.tol2bus.snoop_filter.tot_requests        50249                       # Total number of requests made to the snoop filter.
system.tol2bus.snoop_filter.tot_snoops              0                       # Total number of snoops made to the snoop filter.
system.membus.pwrStateResidencyTicks::UNDEFINED 70892825626000                       # Cumulative time (in ticks) in various power states
system.membus.trans_dist::ReadResp                697                       # Transaction distribution
system.membus.trans_dist::ReadExReq              2323                       # Transaction distribution
system.membus.trans_dist::ReadExResp             2323                       # Transaction distribution
system.membus.trans_dist::ReadSharedReq           697                       # Transaction distribution
system.membus.pkt_count_system.l2.mem_side::system.mem_ctrls.port         6040                       # Packet count per connected master and slave (bytes)
system.membus.pkt_count_system.l2.mem_side::total         6040                       # Packet count per connected master and slave (bytes)
system.membus.pkt_count::total                   6040                       # Packet count per connected master and slave (bytes)
system.membus.pkt_size_system.l2.mem_side::system.mem_ctrls.port       193280                       # Cumulative packet size per connected master and slave (bytes)
system.membus.pkt_size_system.l2.mem_side::total       193280                       # Cumulative packet size per connected master and slave (bytes)
system.membus.pkt_size::total                  193280                       # Cumulative packet size per connected master and slave (bytes)
system.membus.snoops                                0                       # Total snoops (count)
system.membus.snoopTraffic                          0                       # Total snoop traffic (bytes)
system.membus.snoop_fanout::samples              3020                       # Request fanout histogram
system.membus.snoop_fanout::mean                    0                       # Request fanout histogram
system.membus.snoop_fanout::stdev                   0                       # Request fanout histogram
system.membus.snoop_fanout::underflows              0      0.00%      0.00% # Request fanout histogram
system.membus.snoop_fanout::0                    3020    100.00%    100.00% # Request fanout histogram
system.membus.snoop_fanout::1                       0      0.00%    100.00% # Request fanout histogram
system.membus.snoop_fanout::overflows               0      0.00%    100.00% # Request fanout histogram
system.membus.snoop_fanout::min_value               0                       # Request fanout histogram
system.membus.snoop_fanout::max_value               0                       # Request fanout histogram
system.membus.snoop_fanout::total                3020                       # Request fanout histogram
system.membus.reqLayer2.occupancy             3662500                       # Layer occupancy (ticks)
system.membus.reqLayer2.utilization               0.1                       # Layer utilization (%)
system.membus.respLayer1.occupancy           16061750                       # Layer occupancy (ticks)
system.membus.respLayer1.utilization              0.6                       # Layer utilization (%)
system.switch_cpus.pwrStateResidencyTicks::OFF   2616349750                       # Cumulative time (in ticks) in various power states
system.switch_cpus.dtb.walker.pwrStateResidencyTicks::UNDEFINED 70892825626000                       # Cumulative time (in ticks) in various power states
system.switch_cpus.itb.walker.pwrStateResidencyTicks::UNDEFINED 70892825626000                       # Cumulative time (in ticks) in various power states
system.tol2bus.pwrStateResidencyTicks::UNDEFINED 70892825626000                       # Cumulative time (in ticks) in various power states
system.tol2bus.trans_dist::ReadResp              5816                       # Transaction distribution
system.tol2bus.trans_dist::WritebackDirty        19555                       # Transaction distribution
system.tol2bus.trans_dist::WritebackClean          210                       # Transaction distribution
system.tol2bus.trans_dist::CleanEvict            4785                       # Transaction distribution
system.tol2bus.trans_dist::ReadExReq            19883                       # Transaction distribution
system.tol2bus.trans_dist::ReadExResp           19882                       # Transaction distribution
system.tol2bus.trans_dist::ReadCleanReq           334                       # Transaction distribution
system.tol2bus.trans_dist::ReadSharedReq         5482                       # Transaction distribution
system.tol2bus.pkt_count_system.cpu.icache.mem_side::system.l2.cpu_side          878                       # Packet count per connected master and slave (bytes)
system.tol2bus.pkt_count_system.cpu.dcache.mem_side::system.l2.cpu_side        75069                       # Packet count per connected master and slave (bytes)
system.tol2bus.pkt_count::total                 75947                       # Packet count per connected master and slave (bytes)
system.tol2bus.pkt_size_system.cpu.icache.mem_side::system.l2.cpu_side        34816                       # Cumulative packet size per connected master and slave (bytes)
system.tol2bus.pkt_size_system.cpu.dcache.mem_side::system.l2.cpu_side      2874816                       # Cumulative packet size per connected master and slave (bytes)
system.tol2bus.pkt_size::total                2909632                       # Cumulative packet size per connected master and slave (bytes)
system.tol2bus.snoops                               0                       # Total snoops (count)
system.tol2bus.snoopTraffic                         0                       # Total snoop traffic (bytes)
system.tol2bus.snoop_fanout::samples            25699                       # Request fanout histogram
system.tol2bus.snoop_fanout::mean                   0                       # Request fanout histogram
system.tol2bus.snoop_fanout::stdev                  0                       # Request fanout histogram
system.tol2bus.snoop_fanout::underflows             0      0.00%      0.00% # Request fanout histogram
system.tol2bus.snoop_fanout::0                  25699    100.00%    100.00% # Request fanout histogram
system.tol2bus.snoop_fanout::1                      0      0.00%    100.00% # Request fanout histogram
system.tol2bus.snoop_fanout::2                      0      0.00%    100.00% # Request fanout histogram
system.tol2bus.snoop_fanout::3                      0      0.00%    100.00% # Request fanout histogram
system.tol2bus.snoop_fanout::4                      0      0.00%    100.00% # Request fanout histogram
system.tol2bus.snoop_fanout::overflows              0      0.00%    100.00% # Request fanout histogram
system.tol2bus.snoop_fanout::min_value              0                       # Request fanout histogram
system.tol2bus.snoop_fanout::max_value              0                       # Request fanout histogram
system.tol2bus.snoop_fanout::total              25699                       # Request fanout histogram
system.tol2bus.reqLayer0.occupancy           44885500                       # Layer occupancy (ticks)
system.tol2bus.reqLayer0.utilization              1.7                       # Layer utilization (%)
system.tol2bus.respLayer1.occupancy          38037000                       # Layer occupancy (ticks)
system.tol2bus.respLayer1.utilization             1.5                       # Layer utilization (%)
system.tol2bus.respLayer0.occupancy            498499                       # Layer occupancy (ticks)
system.tol2bus.respLayer0.utilization             0.0                       # Layer utilization (%)
system.voltage_domain.voltage                       1                       # Voltage in Volts
system.clk_domain.clock                          1000                       # Clock period in ticks
system.l2.pwrStateResidencyTicks::UNDEFINED 70892825626000                       # Cumulative time (in ticks) in various power states
system.l2.demand_hits::.switch_cpus.inst          205                       # number of demand (read+write) hits
system.l2.demand_hits::.switch_cpus.data        22474                       # number of demand (read+write) hits
system.l2.demand_hits::total                    22679                       # number of demand (read+write) hits
system.l2.overall_hits::.switch_cpus.inst          205                       # number of overall hits
system.l2.overall_hits::.switch_cpus.data        22474                       # number of overall hits
system.l2.overall_hits::total                   22679                       # number of overall hits
system.l2.demand_misses::.cpu.inst                  2                       # number of demand (read+write) misses
system.l2.demand_misses::.cpu.data                  6                       # number of demand (read+write) misses
system.l2.demand_misses::.switch_cpus.inst          127                       # number of demand (read+write) misses
system.l2.demand_misses::.switch_cpus.data         2885                       # number of demand (read+write) misses
system.l2.demand_misses::total                   3020                       # number of demand (read+write) misses
system.l2.overall_misses::.cpu.inst                 2                       # number of overall misses
system.l2.overall_misses::.cpu.data                 6                       # number of overall misses
system.l2.overall_misses::.switch_cpus.inst          127                       # number of overall misses
system.l2.overall_misses::.switch_cpus.data         2885                       # number of overall misses
system.l2.overall_misses::total                  3020                       # number of overall misses
system.l2.demand_miss_latency::.switch_cpus.inst      9938000                       # number of demand (read+write) miss cycles
system.l2.demand_miss_latency::.switch_cpus.data    230058000                       # number of demand (read+write) miss cycles
system.l2.demand_miss_latency::total        239996000                       # number of demand (read+write) miss cycles
system.l2.overall_miss_latency::.switch_cpus.inst      9938000                       # number of overall miss cycles
system.l2.overall_miss_latency::.switch_cpus.data    230058000                       # number of overall miss cycles
system.l2.overall_miss_latency::total       239996000                       # number of overall miss cycles
system.l2.demand_accesses::.cpu.inst                2                       # number of demand (read+write) accesses
system.l2.demand_accesses::.cpu.data                6                       # number of demand (read+write) accesses
system.l2.demand_accesses::.switch_cpus.inst          332                       # number of demand (read+write) accesses
system.l2.demand_accesses::.switch_cpus.data        25359                       # number of demand (read+write) accesses
system.l2.demand_accesses::total                25699                       # number of demand (read+write) accesses
system.l2.overall_accesses::.cpu.inst               2                       # number of overall (read+write) accesses
system.l2.overall_accesses::.cpu.data               6                       # number of overall (read+write) accesses
system.l2.overall_accesses::.switch_cpus.inst          332                       # number of overall (read+write) accesses
system.l2.overall_accesses::.switch_cpus.data        25359                       # number of overall (read+write) accesses
system.l2.overall_accesses::total               25699                       # number of overall (read+write) accesses
system.l2.demand_miss_rate::.cpu.inst               1                       # miss rate for demand accesses
system.l2.demand_miss_rate::.cpu.data               1                       # miss rate for demand accesses
system.l2.demand_miss_rate::.switch_cpus.inst     0.382530                       # miss rate for demand accesses
system.l2.demand_miss_rate::.switch_cpus.data     0.113766                       # miss rate for demand accesses
system.l2.demand_miss_rate::total            0.117514                       # miss rate for demand accesses
system.l2.overall_miss_rate::.cpu.inst              1                       # miss rate for overall accesses
system.l2.overall_miss_rate::.cpu.data              1                       # miss rate for overall accesses
system.l2.overall_miss_rate::.switch_cpus.inst     0.382530                       # miss rate for overall accesses
system.l2.overall_miss_rate::.switch_cpus.data     0.113766                       # miss rate for overall accesses
system.l2.overall_miss_rate::total           0.117514                       # miss rate for overall accesses
system.l2.demand_avg_miss_latency::.switch_cpus.inst 78251.968504                       # average overall miss latency
system.l2.demand_avg_miss_latency::.switch_cpus.data 79742.807626                       # average overall miss latency
system.l2.demand_avg_miss_latency::total 79468.874172                       # average overall miss latency
system.l2.overall_avg_miss_latency::.switch_cpus.inst 78251.968504                       # average overall miss latency
system.l2.overall_avg_miss_latency::.switch_cpus.data 79742.807626                       # average overall miss latency
system.l2.overall_avg_miss_latency::total 79468.874172                       # average overall miss latency
system.l2.blocked_cycles::no_mshrs                  0                       # number of cycles access was blocked
system.l2.blocked_cycles::no_targets                0                       # number of cycles access was blocked
system.l2.blocked::no_mshrs                         0                       # number of cycles access was blocked
system.l2.blocked::no_targets                       0                       # number of cycles access was blocked
system.l2.avg_blocked_cycles::no_mshrs            nan                       # average number of cycles each access was blocked
system.l2.avg_blocked_cycles::no_targets          nan                       # average number of cycles each access was blocked
system.l2.demand_mshr_misses::.switch_cpus.inst          127                       # number of demand (read+write) MSHR misses
system.l2.demand_mshr_misses::.switch_cpus.data         2885                       # number of demand (read+write) MSHR misses
system.l2.demand_mshr_misses::total              3012                       # number of demand (read+write) MSHR misses
system.l2.overall_mshr_misses::.switch_cpus.inst          127                       # number of overall MSHR misses
system.l2.overall_mshr_misses::.switch_cpus.data         2885                       # number of overall MSHR misses
system.l2.overall_mshr_misses::total             3012                       # number of overall MSHR misses
system.l2.demand_mshr_miss_latency::.switch_cpus.inst      8668000                       # number of demand (read+write) MSHR miss cycles
system.l2.demand_mshr_miss_latency::.switch_cpus.data    201208000                       # number of demand (read+write) MSHR miss cycles
system.l2.demand_mshr_miss_latency::total    209876000                       # number of demand (read+write) MSHR miss cycles
system.l2.overall_mshr_miss_latency::.switch_cpus.inst      8668000                       # number of overall MSHR miss cycles
system.l2.overall_mshr_miss_latency::.switch_cpus.data    201208000                       # number of overall MSHR miss cycles
system.l2.overall_mshr_miss_latency::total    209876000                       # number of overall MSHR miss cycles
system.l2.demand_mshr_miss_rate::.switch_cpus.inst     0.382530                       # mshr miss rate for demand accesses
system.l2.demand_mshr_miss_rate::.switch_cpus.data     0.113766                       # mshr miss rate for demand accesses
system.l2.demand_mshr_miss_rate::total       0.117203                       # mshr miss rate for demand accesses
system.l2.overall_mshr_miss_rate::.switch_cpus.inst     0.382530                       # mshr miss rate for overall accesses
system.l2.overall_mshr_miss_rate::.switch_cpus.data     0.113766                       # mshr miss rate for overall accesses
system.l2.overall_mshr_miss_rate::total      0.117203                       # mshr miss rate for overall accesses
system.l2.demand_avg_mshr_miss_latency::.switch_cpus.inst 68251.968504                       # average overall mshr miss latency
system.l2.demand_avg_mshr_miss_latency::.switch_cpus.data 69742.807626                       # average overall mshr miss latency
system.l2.demand_avg_mshr_miss_latency::total 69679.946879                       # average overall mshr miss latency
system.l2.overall_avg_mshr_miss_latency::.switch_cpus.inst 68251.968504                       # average overall mshr miss latency
system.l2.overall_avg_mshr_miss_latency::.switch_cpus.data 69742.807626                       # average overall mshr miss latency
system.l2.overall_avg_mshr_miss_latency::total 69679.946879                       # average overall mshr miss latency
system.l2.replacements                              0                       # number of replacements
system.l2.WritebackDirty_hits::.writebacks        19555                       # number of WritebackDirty hits
system.l2.WritebackDirty_hits::total            19555                       # number of WritebackDirty hits
system.l2.WritebackDirty_accesses::.writebacks        19555                       # number of WritebackDirty accesses(hits+misses)
system.l2.WritebackDirty_accesses::total        19555                       # number of WritebackDirty accesses(hits+misses)
system.l2.WritebackClean_hits::.writebacks          210                       # number of WritebackClean hits
system.l2.WritebackClean_hits::total              210                       # number of WritebackClean hits
system.l2.WritebackClean_accesses::.writebacks          210                       # number of WritebackClean accesses(hits+misses)
system.l2.WritebackClean_accesses::total          210                       # number of WritebackClean accesses(hits+misses)
system.l2.ReadExReq_hits::.switch_cpus.data        17560                       # number of ReadExReq hits
system.l2.ReadExReq_hits::total                 17560                       # number of ReadExReq hits
system.l2.ReadExReq_misses::.cpu.data               2                       # number of ReadExReq misses
system.l2.ReadExReq_misses::.switch_cpus.data         2321                       # number of ReadExReq misses
system.l2.ReadExReq_misses::total                2323                       # number of ReadExReq misses
system.l2.ReadExReq_miss_latency::.switch_cpus.data    182196500                       # number of ReadExReq miss cycles
system.l2.ReadExReq_miss_latency::total     182196500                       # number of ReadExReq miss cycles
system.l2.ReadExReq_accesses::.cpu.data             2                       # number of ReadExReq accesses(hits+misses)
system.l2.ReadExReq_accesses::.switch_cpus.data        19881                       # number of ReadExReq accesses(hits+misses)
system.l2.ReadExReq_accesses::total             19883                       # number of ReadExReq accesses(hits+misses)
system.l2.ReadExReq_miss_rate::.cpu.data            1                       # miss rate for ReadExReq accesses
system.l2.ReadExReq_miss_rate::.switch_cpus.data     0.116745                       # miss rate for ReadExReq accesses
system.l2.ReadExReq_miss_rate::total         0.116833                       # miss rate for ReadExReq accesses
system.l2.ReadExReq_avg_miss_latency::.switch_cpus.data 78499.138302                       # average ReadExReq miss latency
system.l2.ReadExReq_avg_miss_latency::total 78431.554025                       # average ReadExReq miss latency
system.l2.ReadExReq_mshr_misses::.switch_cpus.data         2321                       # number of ReadExReq MSHR misses
system.l2.ReadExReq_mshr_misses::total           2321                       # number of ReadExReq MSHR misses
system.l2.ReadExReq_mshr_miss_latency::.switch_cpus.data    158986500                       # number of ReadExReq MSHR miss cycles
system.l2.ReadExReq_mshr_miss_latency::total    158986500                       # number of ReadExReq MSHR miss cycles
system.l2.ReadExReq_mshr_miss_rate::.switch_cpus.data     0.116745                       # mshr miss rate for ReadExReq accesses
system.l2.ReadExReq_mshr_miss_rate::total     0.116733                       # mshr miss rate for ReadExReq accesses
system.l2.ReadExReq_avg_mshr_miss_latency::.switch_cpus.data 68499.138302                       # average ReadExReq mshr miss latency
system.l2.ReadExReq_avg_mshr_miss_latency::total 68499.138302                       # average ReadExReq mshr miss latency
system.l2.ReadCleanReq_hits::.switch_cpus.inst          205                       # number of ReadCleanReq hits
system.l2.ReadCleanReq_hits::total                205                       # number of ReadCleanReq hits
system.l2.ReadCleanReq_misses::.cpu.inst            2                       # number of ReadCleanReq misses
system.l2.ReadCleanReq_misses::.switch_cpus.inst          127                       # number of ReadCleanReq misses
system.l2.ReadCleanReq_misses::total              129                       # number of ReadCleanReq misses
system.l2.ReadCleanReq_miss_latency::.switch_cpus.inst      9938000                       # number of ReadCleanReq miss cycles
system.l2.ReadCleanReq_miss_latency::total      9938000                       # number of ReadCleanReq miss cycles
system.l2.ReadCleanReq_accesses::.cpu.inst            2                       # number of ReadCleanReq accesses(hits+misses)
system.l2.ReadCleanReq_accesses::.switch_cpus.inst          332                       # number of ReadCleanReq accesses(hits+misses)
system.l2.ReadCleanReq_accesses::total            334                       # number of ReadCleanReq accesses(hits+misses)
system.l2.ReadCleanReq_miss_rate::.cpu.inst            1                       # miss rate for ReadCleanReq accesses
system.l2.ReadCleanReq_miss_rate::.switch_cpus.inst     0.382530                       # miss rate for ReadCleanReq accesses
system.l2.ReadCleanReq_miss_rate::total      0.386228                       # miss rate for ReadCleanReq accesses
system.l2.ReadCleanReq_avg_miss_latency::.switch_cpus.inst 78251.968504                       # average ReadCleanReq miss latency
system.l2.ReadCleanReq_avg_miss_latency::total 77038.759690                       # average ReadCleanReq miss latency
system.l2.ReadCleanReq_mshr_misses::.switch_cpus.inst          127                       # number of ReadCleanReq MSHR misses
system.l2.ReadCleanReq_mshr_misses::total          127                       # number of ReadCleanReq MSHR misses
system.l2.ReadCleanReq_mshr_miss_latency::.switch_cpus.inst      8668000                       # number of ReadCleanReq MSHR miss cycles
system.l2.ReadCleanReq_mshr_miss_latency::total      8668000                       # number of ReadCleanReq MSHR miss cycles
[...]
system.cpu.itb.walker.pwrStateResidencyTicks::UNDEFINED 70900535254500                       # Cumulative time (in ticks) in various power states
system.cpu.dtb_walker_cache.pwrStateResidencyTicks::UNDEFINED 70900535254500                       # Cumulative time (in ticks) in various power states
system.cpu.dtb_walker_cache.blocked_cycles::no_mshrs            0                       # number of cycles access was blocked
system.cpu.dtb_walker_cache.blocked_cycles::no_targets            0                       # number of cycles access was blocked
system.cpu.dtb_walker_cache.blocked::no_mshrs            0                       # number of cycles access was blocked
system.cpu.dtb_walker_cache.blocked::no_targets            0                       # number of cycles access was blocked
system.cpu.dtb_walker_cache.avg_blocked_cycles::no_mshrs          nan                       # average number of cycles each access was blocked
system.cpu.dtb_walker_cache.avg_blocked_cycles::no_targets          nan                       # average number of cycles each access was blocked
system.cpu.dtb_walker_cache.replacements            0                       # number of replacements
system.cpu.dtb_walker_cache.tags.pwrStateResidencyTicks::UNDEFINED 70900535254500                       # Cumulative time (in ticks) in various power states
system.cpu.dtb_walker_cache.tags.tagsinuse            0                       # Cycle average of tags in use
system.cpu.dtb_walker_cache.tags.total_refs            0                       # Total number of references to valid blocks.
system.cpu.dtb_walker_cache.tags.sampled_refs            0                       # Sample count of references to valid blocks.
system.cpu.dtb_walker_cache.tags.avg_refs          nan                       # Average number of references to valid blocks.
system.cpu.dtb_walker_cache.tags.warmup_cycle            0                       # Cycle when the warmup percentage was hit.
system.cpu.dtb_walker_cache.tags.tag_accesses            0                       # Number of tag accesses
system.cpu.dtb_walker_cache.tags.data_accesses            0                       # Number of data accesses
system.cpu.dcache.pwrStateResidencyTicks::UNDEFINED 70900535254500                       # Cumulative time (in ticks) in various power states
system.cpu.dcache.demand_hits::.cpu.data            1                       # number of demand (read+write) hits
system.cpu.dcache.demand_hits::.switch_cpus.data     18897521                       # number of demand (read+write) hits
system.cpu.dcache.demand_hits::total         18897522                       # number of demand (read+write) hits
system.cpu.dcache.overall_hits::.cpu.data            1                       # number of overall hits
system.cpu.dcache.overall_hits::.switch_cpus.data     18946086                       # number of overall hits
system.cpu.dcache.overall_hits::total        18946087                       # number of overall hits
system.cpu.dcache.demand_misses::.cpu.data            6                       # number of demand (read+write) misses
system.cpu.dcache.demand_misses::.switch_cpus.data       106415                       # number of demand (read+write) misses
system.cpu.dcache.demand_misses::total         106421                       # number of demand (read+write) misses
system.cpu.dcache.overall_misses::.cpu.data            6                       # number of overall misses
system.cpu.dcache.overall_misses::.switch_cpus.data       109212                       # number of overall misses
system.cpu.dcache.overall_misses::total        109218                       # number of overall misses
system.cpu.dcache.demand_miss_latency::.switch_cpus.data   1732930990                       # number of demand (read+write) miss cycles
system.cpu.dcache.demand_miss_latency::total   1732930990                       # number of demand (read+write) miss cycles
system.cpu.dcache.overall_miss_latency::.switch_cpus.data   1732930990                       # number of overall miss cycles
system.cpu.dcache.overall_miss_latency::total   1732930990                       # number of overall miss cycles
system.cpu.dcache.demand_accesses::.cpu.data            7                       # number of demand (read+write) accesses
system.cpu.dcache.demand_accesses::.switch_cpus.data     19003936                       # number of demand (read+write) accesses
system.cpu.dcache.demand_accesses::total     19003943                       # number of demand (read+write) accesses
system.cpu.dcache.overall_accesses::.cpu.data            7                       # number of overall (read+write) accesses
system.cpu.dcache.overall_accesses::.switch_cpus.data     19055298                       # number of overall (read+write) accesses
system.cpu.dcache.overall_accesses::total     19055305                       # number of overall (read+write) accesses
system.cpu.dcache.demand_miss_rate::.cpu.data     0.857143                       # miss rate for demand accesses
system.cpu.dcache.demand_miss_rate::.switch_cpus.data     0.005600                       # miss rate for demand accesses
system.cpu.dcache.demand_miss_rate::total     0.005600                       # miss rate for demand accesses
system.cpu.dcache.overall_miss_rate::.cpu.data     0.857143                       # miss rate for overall accesses
system.cpu.dcache.overall_miss_rate::.switch_cpus.data     0.005731                       # miss rate for overall accesses
system.cpu.dcache.overall_miss_rate::total     0.005732                       # miss rate for overall accesses
system.cpu.dcache.demand_avg_miss_latency::.switch_cpus.data 16284.649626                       # average overall miss latency
system.cpu.dcache.demand_avg_miss_latency::total 16283.731500                       # average overall miss latency
system.cpu.dcache.overall_avg_miss_latency::.switch_cpus.data 15867.587719                       # average overall miss latency
system.cpu.dcache.overall_avg_miss_latency::total 15866.716018                       # average overall miss latency
system.cpu.dcache.blocked_cycles::no_mshrs         7513                       # number of cycles access was blocked
system.cpu.dcache.blocked_cycles::no_targets          172                       # number of cycles access was blocked
system.cpu.dcache.blocked::no_mshrs               739                       # number of cycles access was blocked
system.cpu.dcache.blocked::no_targets               2                       # number of cycles access was blocked
system.cpu.dcache.avg_blocked_cycles::no_mshrs    10.166441                       # average number of cycles each access was blocked
system.cpu.dcache.avg_blocked_cycles::no_targets           86                       # average number of cycles each access was blocked
system.cpu.dcache.writebacks::.writebacks        85747                       # number of writebacks
system.cpu.dcache.writebacks::total             85747                       # number of writebacks
system.cpu.dcache.demand_mshr_hits::.switch_cpus.data         3430                       # number of demand (read+write) MSHR hits
system.cpu.dcache.demand_mshr_hits::total         3430                       # number of demand (read+write) MSHR hits
system.cpu.dcache.overall_mshr_hits::.switch_cpus.data         3430                       # number of overall MSHR hits
system.cpu.dcache.overall_mshr_hits::total         3430                       # number of overall MSHR hits
system.cpu.dcache.demand_mshr_misses::.switch_cpus.data       102985                       # number of demand (read+write) MSHR misses
system.cpu.dcache.demand_mshr_misses::total       102985                       # number of demand (read+write) MSHR misses
system.cpu.dcache.overall_mshr_misses::.switch_cpus.data       105054                       # number of overall MSHR misses
system.cpu.dcache.overall_mshr_misses::total       105054                       # number of overall MSHR misses
system.cpu.dcache.demand_mshr_miss_latency::.switch_cpus.data   1571821491                       # number of demand (read+write) MSHR miss cycles
system.cpu.dcache.demand_mshr_miss_latency::total   1571821491                       # number of demand (read+write) MSHR miss cycles
system.cpu.dcache.overall_mshr_miss_latency::.switch_cpus.data   1617630991                       # number of overall MSHR miss cycles
system.cpu.dcache.overall_mshr_miss_latency::total   1617630991                       # number of overall MSHR miss cycles
system.cpu.dcache.demand_mshr_miss_rate::.switch_cpus.data     0.005419                       # mshr miss rate for demand accesses
system.cpu.dcache.demand_mshr_miss_rate::total     0.005419                       # mshr miss rate for demand accesses
system.cpu.dcache.overall_mshr_miss_rate::.switch_cpus.data     0.005513                       # mshr miss rate for overall accesses
system.cpu.dcache.overall_mshr_miss_rate::total     0.005513                       # mshr miss rate for overall accesses
system.cpu.dcache.demand_avg_mshr_miss_latency::.switch_cpus.data 15262.625538                       # average overall mshr miss latency
system.cpu.dcache.demand_avg_mshr_miss_latency::total 15262.625538                       # average overall mshr miss latency
system.cpu.dcache.overall_avg_mshr_miss_latency::.switch_cpus.data 15398.090420                       # average overall mshr miss latency
system.cpu.dcache.overall_avg_mshr_miss_latency::total 15398.090420                       # average overall mshr miss latency
system.cpu.dcache.replacements                 104036                       # number of replacements
system.cpu.dcache.ReadReq_hits::.cpu.data            1                       # number of ReadReq hits
system.cpu.dcache.ReadReq_hits::.switch_cpus.data     13365740                       # number of ReadReq hits
system.cpu.dcache.ReadReq_hits::total        13365741                       # number of ReadReq hits
system.cpu.dcache.ReadReq_misses::.cpu.data            4                       # number of ReadReq misses
system.cpu.dcache.ReadReq_misses::.switch_cpus.data        25056                       # number of ReadReq misses
system.cpu.dcache.ReadReq_misses::total         25060                       # number of ReadReq misses
system.cpu.dcache.ReadReq_miss_latency::.switch_cpus.data    395152000                       # number of ReadReq miss cycles
system.cpu.dcache.ReadReq_miss_latency::total    395152000                       # number of ReadReq miss cycles
system.cpu.dcache.ReadReq_accesses::.cpu.data            5                       # number of ReadReq accesses(hits+misses)
system.cpu.dcache.ReadReq_accesses::.switch_cpus.data     13390796                       # number of ReadReq accesses(hits+misses)
system.cpu.dcache.ReadReq_accesses::total     13390801                       # number of ReadReq accesses(hits+misses)
system.cpu.dcache.ReadReq_miss_rate::.cpu.data     0.800000                       # miss rate for ReadReq accesses
system.cpu.dcache.ReadReq_miss_rate::.switch_cpus.data     0.001871                       # miss rate for ReadReq accesses
system.cpu.dcache.ReadReq_miss_rate::total     0.001871                       # miss rate for ReadReq accesses
system.cpu.dcache.ReadReq_avg_miss_latency::.switch_cpus.data 15770.753512                       # average ReadReq miss latency
system.cpu.dcache.ReadReq_avg_miss_latency::total 15768.236233                       # average ReadReq miss latency
system.cpu.dcache.ReadReq_mshr_hits::.switch_cpus.data         3406                       # number of ReadReq MSHR hits
system.cpu.dcache.ReadReq_mshr_hits::total         3406                       # number of ReadReq MSHR hits
system.cpu.dcache.ReadReq_mshr_misses::.switch_cpus.data        21650                       # number of ReadReq MSHR misses
system.cpu.dcache.ReadReq_mshr_misses::total        21650                       # number of ReadReq MSHR misses
system.cpu.dcache.ReadReq_mshr_miss_latency::.switch_cpus.data    315820000                       # number of ReadReq MSHR miss cycles
system.cpu.dcache.ReadReq_mshr_miss_latency::total    315820000                       # number of ReadReq MSHR miss cycles
system.cpu.dcache.ReadReq_mshr_miss_rate::.switch_cpus.data     0.001617                       # mshr miss rate for ReadReq accesses
system.cpu.dcache.ReadReq_mshr_miss_rate::total     0.001617                       # mshr miss rate for ReadReq accesses
system.cpu.dcache.ReadReq_avg_mshr_miss_latency::.switch_cpus.data 14587.528868                       # average ReadReq mshr miss latency
system.cpu.dcache.ReadReq_avg_mshr_miss_latency::total 14587.528868                       # average ReadReq mshr miss latency
system.cpu.dcache.WriteReq_hits::.switch_cpus.data      5531781                       # number of WriteReq hits
system.cpu.dcache.WriteReq_hits::total        5531781                       # number of WriteReq hits
system.cpu.dcache.WriteReq_misses::.cpu.data            2                       # number of WriteReq misses
system.cpu.dcache.WriteReq_misses::.switch_cpus.data        81359                       # number of WriteReq misses
system.cpu.dcache.WriteReq_misses::total        81361                       # number of WriteReq misses
system.cpu.dcache.WriteReq_miss_latency::.switch_cpus.data   1337778990                       # number of WriteReq miss cycles
system.cpu.dcache.WriteReq_miss_latency::total   1337778990                       # number of WriteReq miss cycles
system.cpu.dcache.WriteReq_accesses::.cpu.data            2                       # number of WriteReq accesses(hits+misses)
system.cpu.dcache.WriteReq_accesses::.switch_cpus.data      5613140                       # number of WriteReq accesses(hits+misses)
system.cpu.dcache.WriteReq_accesses::total      5613142                       # number of WriteReq accesses(hits+misses)
system.cpu.dcache.WriteReq_miss_rate::.cpu.data            1                       # miss rate for WriteReq accesses
system.cpu.dcache.WriteReq_miss_rate::.switch_cpus.data     0.014494                       # miss rate for WriteReq accesses
system.cpu.dcache.WriteReq_miss_rate::total     0.014495                       # miss rate for WriteReq accesses
system.cpu.dcache.WriteReq_avg_miss_latency::.switch_cpus.data 16442.913384                       # average WriteReq miss latency
system.cpu.dcache.WriteReq_avg_miss_latency::total 16442.509187                       # average WriteReq miss latency
system.cpu.dcache.WriteReq_mshr_hits::.switch_cpus.data           24                       # number of WriteReq MSHR hits
system.cpu.dcache.WriteReq_mshr_hits::total           24                       # number of WriteReq MSHR hits
system.cpu.dcache.WriteReq_mshr_misses::.switch_cpus.data        81335                       # number of WriteReq MSHR misses
system.cpu.dcache.WriteReq_mshr_misses::total        81335                       # number of WriteReq MSHR misses
system.cpu.dcache.WriteReq_mshr_miss_latency::.switch_cpus.data   1256001491                       # number of WriteReq MSHR miss cycles
system.cpu.dcache.WriteReq_mshr_miss_latency::total   1256001491                       # number of WriteReq MSHR miss cycles
system.cpu.dcache.WriteReq_mshr_miss_rate::.switch_cpus.data     0.014490                       # mshr miss rate for WriteReq accesses
system.cpu.dcache.WriteReq_mshr_miss_rate::total     0.014490                       # mshr miss rate for WriteReq accesses
system.cpu.dcache.WriteReq_avg_mshr_miss_latency::.switch_cpus.data 15442.324842                       # average WriteReq mshr miss latency
system.cpu.dcache.WriteReq_avg_mshr_miss_latency::total 15442.324842                       # average WriteReq mshr miss latency
system.cpu.dcache.SoftPFReq_hits::.switch_cpus.data        48565                       # number of SoftPFReq hits
system.cpu.dcache.SoftPFReq_hits::total         48565                       # number of SoftPFReq hits
system.cpu.dcache.SoftPFReq_misses::.switch_cpus.data         2797                       # number of SoftPFReq misses
system.cpu.dcache.SoftPFReq_misses::total         2797                       # number of SoftPFReq misses
system.cpu.dcache.SoftPFReq_accesses::.switch_cpus.data        51362                       # number of SoftPFReq accesses(hits+misses)
system.cpu.dcache.SoftPFReq_accesses::total        51362                       # number of SoftPFReq accesses(hits+misses)
system.cpu.dcache.SoftPFReq_miss_rate::.switch_cpus.data     0.054457                       # miss rate for SoftPFReq accesses
system.cpu.dcache.SoftPFReq_miss_rate::total     0.054457                       # miss rate for SoftPFReq accesses
system.cpu.dcache.SoftPFReq_mshr_misses::.switch_cpus.data         2069                       # number of SoftPFReq MSHR misses
system.cpu.dcache.SoftPFReq_mshr_misses::total         2069                       # number of SoftPFReq MSHR misses
system.cpu.dcache.SoftPFReq_mshr_miss_latency::.switch_cpus.data     45809500                       # number of SoftPFReq MSHR miss cycles
system.cpu.dcache.SoftPFReq_mshr_miss_latency::total     45809500                       # number of SoftPFReq MSHR miss cycles
system.cpu.dcache.SoftPFReq_mshr_miss_rate::.switch_cpus.data     0.040283                       # mshr miss rate for SoftPFReq accesses
system.cpu.dcache.SoftPFReq_mshr_miss_rate::total     0.040283                       # mshr miss rate for SoftPFReq accesses
system.cpu.dcache.SoftPFReq_avg_mshr_miss_latency::.switch_cpus.data 22140.889319                       # average SoftPFReq mshr miss latency
system.cpu.dcache.SoftPFReq_avg_mshr_miss_latency::total 22140.889319                       # average SoftPFReq mshr miss latency
system.cpu.dcache.tags.pwrStateResidencyTicks::UNDEFINED 70900535254500                       # Cumulative time (in ticks) in various power states
system.cpu.dcache.tags.tagsinuse             0.147951                       # Cycle average of tags in use
system.cpu.dcache.tags.total_refs            19051147                       # Total number of references to valid blocks.
system.cpu.dcache.tags.sampled_refs            105060                       # Sample count of references to valid blocks.
system.cpu.dcache.tags.avg_refs            181.335875                       # Average number of references to valid blocks.
system.cpu.dcache.tags.warmup_cycle      70890209278500                       # Cycle when the warmup percentage was hit.
system.cpu.dcache.tags.occ_blocks::.cpu.data     0.000390                       # Average occupied blocks per requestor
system.cpu.dcache.tags.occ_blocks::.switch_cpus.data     0.147560                       # Average occupied blocks per requestor
system.cpu.dcache.tags.occ_percent::.cpu.data     0.000000                       # Average percentage of cache occupancy
system.cpu.dcache.tags.occ_percent::.switch_cpus.data     0.000144                       # Average percentage of cache occupancy
system.cpu.dcache.tags.occ_percent::total     0.000144                       # Average percentage of cache occupancy
system.cpu.dcache.tags.occ_task_id_blocks::1024         1024                       # Occupied blocks per task id
system.cpu.dcache.tags.age_task_id_blocks_1024::0            2                       # Occupied blocks per task id
system.cpu.dcache.tags.age_task_id_blocks_1024::1          536                       # Occupied blocks per task id
system.cpu.dcache.tags.age_task_id_blocks_1024::2          486                       # Occupied blocks per task id
system.cpu.dcache.tags.occ_task_id_percent::1024            1                       # Percentage of cache occupancy per task id
system.cpu.dcache.tags.tag_accesses          38215670                       # Number of tag accesses
system.cpu.dcache.tags.data_accesses         38215670                       # Number of data accesses

---------- End Simulation Statistics   ----------
