
---------- Begin Simulation Statistics ----------
final_tick                               92808531261000                       # Number of ticks from beginning of simulation (restored from checkpoints and never reset)
host_inst_rate                                  35145                       # Simulator instruction rate (inst/s)
host_mem_usage                                 828644                       # Number of bytes of host memory used
host_op_rate                                    56950                       # Simulator op (including micro ops) rate (op/s)
host_seconds                                   284.54                       # Real time elapsed on the host
host_tick_rate                               96422426                       # Simulator tick rate (ticks/s)
sim_freq                                 1000000000000                       # Frequency of simulated ticks
sim_insts                                    10000011                       # Number of instructions simulated
sim_ops                                      16204569                       # Number of ops (including micro ops) simulated
sim_seconds                                  0.027436                       # Number of seconds simulated
sim_ticks                                 27435834750                       # Number of ticks simulated
system.cpu.Branches                                 3                       # Number of branches fetched
system.cpu.committedInsts                          10                       # Number of instructions committed
system.cpu.committedOps                            18                       # Number of ops (including micro ops) committed
system.cpu.dtb.rdAccesses                           4                       # TLB accesses on read requests
system.cpu.dtb.rdMisses                             0                       # TLB misses on read requests
system.cpu.dtb.wrAccesses                           0                       # TLB accesses on write requests
system.cpu.dtb.wrMisses                             0                       # TLB misses on write requests
system.cpu.idle_fraction                            0                       # Percentage of idle cycles
system.cpu.itb.rdAccesses                           0                       # TLB accesses on read requests
system.cpu.itb.rdMisses                             0                       # TLB misses on read requests
system.cpu.itb.wrAccesses                          13                       # TLB accesses on write requests
system.cpu.itb.wrMisses                             0                       # TLB misses on write requests
system.cpu.not_idle_fraction                        1                       # Percentage of non-idle cycles
system.cpu.numCycles                               21                       # number of cpu cycles simulated
system.cpu.numWorkItemsCompleted                    0                       # number of work items this cpu completed
system.cpu.numWorkItemsStarted                      0                       # number of work items this cpu started
system.cpu.num_busy_cycles                         21                       # Number of busy cycles
system.cpu.num_cc_register_reads                   16                       # number of times the CC registers were read
system.cpu.num_cc_register_writes                   8                       # number of times the CC registers were written
system.cpu.num_conditional_control_insts            3                       # number of instructions that are conditional controls
system.cpu.num_fp_alu_accesses                      0                       # Number of float alu accesses
system.cpu.num_fp_insts                             0                       # number of float instructions
system.cpu.num_fp_register_reads                    0                       # number of times the floating registers were read
system.cpu.num_fp_register_writes                   0                       # number of times the floating registers were written
system.cpu.num_func_calls                           0                       # number of times a function call or return occured
system.cpu.num_idle_cycles                          0                       # Number of idle cycles
system.cpu.num_int_alu_accesses                    18                       # Number of integer alu accesses
system.cpu.num_int_insts                           18                       # number of integer instructions
system.cpu.num_int_register_reads                  33                       # number of times the integer registers were read
system.cpu.num_int_register_writes                 15                       # number of times the integer registers were written
system.cpu.num_load_insts                           4                       # Number of load instructions
system.cpu.num_mem_refs                             4                       # number of memory refs
system.cpu.num_store_insts                          0                       # Number of store instructions
system.cpu.num_vec_alu_accesses                     0                       # Number of vector alu accesses
system.cpu.num_vec_insts                            0                       # number of vector instructions
system.cpu.num_vec_register_reads                   0                       # number of times the vector registers were read
system.cpu.num_vec_register_writes                  0                       # number of times the vector registers were written
system.cpu.op_class::No_OpClass                     0      0.00%      0.00% # Class of executed instruction
system.cpu.op_class::IntAlu                        14     77.78%     77.78% # Class of executed instruction
system.cpu.op_class::IntMult                        0      0.00%     77.78% # Class of executed instruction
system.cpu.op_class::IntDiv                         0      0.00%     77.78% # Class of executed instruction
system.cpu.op_class::FloatAdd                       0      0.00%     77.78% # Class of executed instruction
system.cpu.op_class::FloatCmp                       0      0.00%     77.78% # Class of executed instruction
system.cpu.op_class::FloatCvt                       0      0.00%     77.78% # Class of executed instruction
system.cpu.op_class::FloatMult                      0      0.00%     77.78% # Class of executed instruction
system.cpu.op_class::FloatMultAcc                   0      0.00%     77.78% # Class of executed instruction
system.cpu.op_class::FloatDiv                       0      0.00%     77.78% # Class of executed instruction
system.cpu.op_class::FloatMisc                      0      0.00%     77.78% # Class of executed instruction
system.cpu.op_class::FloatSqrt                      0      0.00%     77.78% # Class of executed instruction
system.cpu.op_class::SimdAdd                        0      0.00%     77.78% # Class of executed instruction
system.cpu.op_class::SimdAddAcc                     0      0.00%     77.78% # Class of executed instruction
system.cpu.op_class::SimdAlu                        0      0.00%     77.78% # Class of executed instruction
system.cpu.op_class::SimdCmp                        0      0.00%     77.78% # Class of executed instruction
system.cpu.op_class::SimdCvt                        0      0.00%     77.78% # Class of executed instruction
system.cpu.op_class::SimdMisc                       0      0.00%     77.78% # Class of executed instruction
system.cpu.op_class::SimdMult                       0      0.00%     77.78% # Class of executed instruction
system.cpu.op_class::SimdMultAcc                    0      0.00%     77.78% # Class of executed instruction
system.cpu.op_class::SimdShift                      0      0.00%     77.78% # Class of executed instruction
system.cpu.op_class::SimdShiftAcc                   0      0.00%     77.78% # Class of executed instruction
system.cpu.op_class::SimdDiv                        0      0.00%     77.78% # Class of executed instruction
system.cpu.op_class::SimdSqrt                       0      0.00%     77.78% # Class of executed instruction
system.cpu.op_class::SimdFloatAdd                   0      0.00%     77.78% # Class of executed instruction
system.cpu.op_class::SimdFloatAlu                   0      0.00%     77.78% # Class of executed instruction
system.cpu.op_class::SimdFloatCmp                   0      0.00%     77.78% # Class of executed instruction
system.cpu.op_class::SimdFloatCvt                   0      0.00%     77.78% # Class of executed instruction
system.cpu.op_class::SimdFloatDiv                   0      0.00%     77.78% # Class of executed instruction
system.cpu.op_class::SimdFloatMisc                  0      0.00%     77.78% # Class of executed instruction
system.cpu.op_class::SimdFloatMult                  0      0.00%     77.78% # Class of executed instruction
system.cpu.op_class::SimdFloatMultAcc               0      0.00%     77.78% # Class of executed instruction
system.cpu.op_class::SimdFloatSqrt                  0      0.00%     77.78% # Class of executed instruction
system.cpu.op_class::SimdReduceAdd                  0      0.00%     77.78% # Class of executed instruction
system.cpu.op_class::SimdReduceAlu                  0      0.00%     77.78% # Class of executed instruction
system.cpu.op_class::SimdReduceCmp                  0      0.00%     77.78% # Class of executed instruction
system.cpu.op_class::SimdFloatReduceAdd             0      0.00%     77.78% # Class of executed instruction
system.cpu.op_class::SimdFloatReduceCmp             0      0.00%     77.78% # Class of executed instruction
system.cpu.op_class::SimdAes                        0      0.00%     77.78% # Class of executed instruction
system.cpu.op_class::SimdAesMix                     0      0.00%     77.78% # Class of executed instruction
system.cpu.op_class::SimdSha1Hash                   0      0.00%     77.78% # Class of executed instruction
system.cpu.op_class::SimdSha1Hash2                  0      0.00%     77.78% # Class of executed instruction
system.cpu.op_class::SimdSha256Hash                 0      0.00%     77.78% # Class of executed instruction
system.cpu.op_class::SimdSha256Hash2                0      0.00%     77.78% # Class of executed instruction
system.cpu.op_class::SimdShaSigma2                  0      0.00%     77.78% # Class of executed instruction
system.cpu.op_class::SimdShaSigma3                  0      0.00%     77.78% # Class of executed instruction
system.cpu.op_class::SimdPredAlu                    0      0.00%     77.78% # Class of executed instruction
system.cpu.op_class::MemRead                        4     22.22%    100.00% # Class of executed instruction
system.cpu.op_class::MemWrite                       0      0.00%    100.00% # Class of executed instruction
system.cpu.op_class::FloatMemRead                   0      0.00%    100.00% # Class of executed instruction
system.cpu.op_class::FloatMemWrite                  0      0.00%    100.00% # Class of executed instruction
system.cpu.op_class::IprAccess                      0      0.00%    100.00% # Class of executed instruction
system.cpu.op_class::InstPrefetch                   0      0.00%    100.00% # Class of executed instruction
system.cpu.op_class::total                         18                       # Class of executed instruction
system.cpu.workload.numSyscalls                     0                       # Number of system calls
system.membus.snoop_filter.hit_multi_requests            0                       # Number of requests hitting in the snoop filter with multiple (>1) holders of the requested data.
system.membus.snoop_filter.hit_multi_snoops            0                       # Number of snoops hitting in the snoop filter with multiple (>1) holders of the requested data.
system.membus.snoop_filter.hit_single_requests       426251                       # Number of requests hitting in the snoop filter with a single holder of the requested data.
system.membus.snoop_filter.hit_single_snoops            0                       # Number of snoops hitting in the snoop filter with a single holder of the requested data.
system.membus.snoop_filter.tot_requests        860713                       # Total number of requests made to the snoop filter.
system.membus.snoop_filter.tot_snoops               0                       # Total number of snoops made to the snoop filter.
system.switch_cpus.branchPred.BTBCorrect            0                       # Number of correct BTB predictions (this stat may not work properly.
system.switch_cpus.branchPred.BTBHitPct      0.000000                       # BTB Hit Percentage
system.switch_cpus.branchPred.BTBHits               0                       # Number of BTB hits
system.switch_cpus.branchPred.BTBLookups      1962195                       # Number of BTB lookups
system.switch_cpus.branchPred.RASInCorrect            0                       # Number of incorrect RAS predictions.
system.switch_cpus.branchPred.condIncorrect       181085                       # Number of conditional branches incorrect
system.switch_cpus.branchPred.condPredicted      4290170                       # Number of conditional branches predicted
system.switch_cpus.branchPred.indirectHits      1588009                       # Number of indirect target hits.
system.switch_cpus.branchPred.indirectLookups      1962195                       # Number of indirect predictor lookups.
system.switch_cpus.branchPred.indirectMisses       374186                       # Number of indirect misses.
system.switch_cpus.branchPred.lookups         4298189                       # Number of BP lookups
system.switch_cpus.branchPred.usedRAS             213                       # Number of times the RAS was used to get a target.
system.switch_cpus.branchPredindirectMispredicted        27361                       # Number of mispredicted indirect branches.
system.switch_cpus.cc_regfile_reads          13265461                       # number of cc regfile reads
system.switch_cpus.cc_regfile_writes          9644796                       # number of cc regfile writes
system.switch_cpus.commit.amos                      0                       # Number of atomic instructions committed
system.switch_cpus.commit.branchMispredicts       181085                       # The number of times a branch was mispredicted
system.switch_cpus.commit.branches            1904056                       # Number of branches committed
system.switch_cpus.commit.bw_lim_events        694054                       # number cycles where commit BW limit reached
system.switch_cpus.commit.commitSquashedInsts     14483717                       # The number of squashed insts skipped by commit
system.switch_cpus.commit.committedInsts     10000001                       # Number of instructions committed
system.switch_cpus.commit.committedOps       16204551                       # Number of ops (including micro ops) committed
system.switch_cpus.commit.committed_per_cycle::samples     52835747                       # Number of insts commited each cycle
system.switch_cpus.commit.committed_per_cycle::mean     0.306697                       # Number of insts commited each cycle
system.switch_cpus.commit.committed_per_cycle::stdev     1.165697                       # Number of insts commited each cycle
system.switch_cpus.commit.committed_per_cycle::underflows            0      0.00%      0.00% # Number of insts commited each cycle
system.switch_cpus.commit.committed_per_cycle::0     47307294     89.54%     89.54% # Number of insts commited each cycle
system.switch_cpus.commit.committed_per_cycle::1      1949797      3.69%     93.23% # Number of insts commited each cycle
system.switch_cpus.commit.committed_per_cycle::2      1271720      2.41%     95.63% # Number of insts commited each cycle
system.switch_cpus.commit.committed_per_cycle::3       781171      1.48%     97.11% # Number of insts commited each cycle
system.switch_cpus.commit.committed_per_cycle::4       575302      1.09%     98.20% # Number of insts commited each cycle
system.switch_cpus.commit.committed_per_cycle::5        79658      0.15%     98.35% # Number of insts commited each cycle
system.switch_cpus.commit.committed_per_cycle::6       121386      0.23%     98.58% # Number of insts commited each cycle
system.switch_cpus.commit.committed_per_cycle::7        55365      0.10%     98.69% # Number of insts commited each cycle
system.switch_cpus.commit.committed_per_cycle::8       694054      1.31%    100.00% # Number of insts commited each cycle
system.switch_cpus.commit.committed_per_cycle::overflows            0      0.00%    100.00% # Number of insts commited each cycle
system.switch_cpus.commit.committed_per_cycle::min_value            0                       # Number of insts commited each cycle
system.switch_cpus.commit.committed_per_cycle::max_value            8                       # Number of insts commited each cycle
system.switch_cpus.commit.committed_per_cycle::total     52835747                       # Number of insts commited each cycle
system.switch_cpus.commit.fp_insts                  0                       # Number of committed floating point instructions.
system.switch_cpus.commit.function_calls            0                       # Number of function calls committed.
system.switch_cpus.commit.int_insts          16204187                       # Number of committed integer instructions.
system.switch_cpus.commit.loads               3567032                       # Number of loads committed
system.switch_cpus.commit.membars                   0                       # Number of memory barriers committed
system.switch_cpus.commit.op_class_0::No_OpClass            0      0.00%      0.00% # Class of committed instruction
system.switch_cpus.commit.op_class_0::IntAlu     11575706     71.43%     71.43% # Class of committed instruction
system.switch_cpus.commit.op_class_0::IntMult            0      0.00%     71.43% # Class of committed instruction
system.switch_cpus.commit.op_class_0::IntDiv            0      0.00%     71.43% # Class of committed instruction
system.switch_cpus.commit.op_class_0::FloatAdd            0      0.00%     71.43% # Class of committed instruction
system.switch_cpus.commit.op_class_0::FloatCmp            0      0.00%     71.43% # Class of committed instruction
system.switch_cpus.commit.op_class_0::FloatCvt            0      0.00%     71.43% # Class of committed instruction
system.switch_cpus.commit.op_class_0::FloatMult            0      0.00%     71.43% # Class of committed instruction
system.switch_cpus.commit.op_class_0::FloatMultAcc            0      0.00%     71.43% # Class of committed instruction
system.switch_cpus.commit.op_class_0::FloatDiv            0      0.00%     71.43% # Class of committed instruction
system.switch_cpus.commit.op_class_0::FloatMisc            0      0.00%     71.43% # Class of committed instruction
system.switch_cpus.commit.op_class_0::FloatSqrt            0      0.00%     71.43% # Class of committed instruction
system.switch_cpus.commit.op_class_0::SimdAdd            0      0.00%     71.43% # Class of committed instruction
system.switch_cpus.commit.op_class_0::SimdAddAcc            0      0.00%     71.43% # Class of committed instruction
system.switch_cpus.commit.op_class_0::SimdAlu            0      0.00%     71.43% # Class of committed instruction
system.switch_cpus.commit.op_class_0::SimdCmp            0      0.00%     71.43% # Class of committed instruction
system.switch_cpus.commit.op_class_0::SimdCvt            0      0.00%     71.43% # Class of committed instruction
system.switch_cpus.commit.op_class_0::SimdMisc            0      0.00%     71.43% # Class of committed instruction
system.switch_cpus.commit.op_class_0::SimdMult            0      0.00%     71.43% # Class of committed instruction
system.switch_cpus.commit.op_class_0::SimdMultAcc            0      0.00%     71.43% # Class of committed instruction
system.switch_cpus.commit.op_class_0::SimdShift            0      0.00%     71.43% # Class of committed instruction
system.switch_cpus.commit.op_class_0::SimdShiftAcc            0      0.00%     71.43% # Class of committed instruction
system.switch_cpus.commit.op_class_0::SimdDiv            0      0.00%     71.43% # Class of committed instruction
system.switch_cpus.commit.op_class_0::SimdSqrt            0      0.00%     71.43% # Class of committed instruction
system.switch_cpus.commit.op_class_0::SimdFloatAdd            0      0.00%     71.43% # Class of committed instruction
system.switch_cpus.commit.op_class_0::SimdFloatAlu            0      0.00%     71.43% # Class of committed instruction
system.switch_cpus.commit.op_class_0::SimdFloatCmp            0      0.00%     71.43% # Class of committed instruction
system.switch_cpus.commit.op_class_0::SimdFloatCvt            0      0.00%     71.43% # Class of committed instruction
system.switch_cpus.commit.op_class_0::SimdFloatDiv            0      0.00%     71.43% # Class of committed instruction
system.switch_cpus.commit.op_class_0::SimdFloatMisc            0      0.00%     71.43% # Class of committed instruction
system.switch_cpus.commit.op_class_0::SimdFloatMult            0      0.00%     71.43% # Class of committed instruction
system.switch_cpus.commit.op_class_0::SimdFloatMultAcc            0      0.00%     71.43% # Class of committed instruction
system.switch_cpus.commit.op_class_0::SimdFloatSqrt            0      0.00%     71.43% # Class of committed instruction
system.switch_cpus.commit.op_class_0::SimdReduceAdd            0      0.00%     71.43% # Class of committed instruction
system.switch_cpus.commit.op_class_0::SimdReduceAlu            0      0.00%     71.43% # Class of committed instruction
system.switch_cpus.commit.op_class_0::SimdReduceCmp            0      0.00%     71.43% # Class of committed instruction
system.switch_cpus.commit.op_class_0::SimdFloatReduceAdd            0      0.00%     71.43% # Class of committed instruction
system.switch_cpus.commit.op_class_0::SimdFloatReduceCmp            0      0.00%     71.43% # Class of committed instruction
system.switch_cpus.commit.op_class_0::SimdAes            0      0.00%     71.43% # Class of committed instruction
system.switch_cpus.commit.op_class_0::SimdAesMix            0      0.00%     71.43% # Class of committed instruction
system.switch_cpus.commit.op_class_0::SimdSha1Hash            0      0.00%     71.43% # Class of committed instruction
system.switch_cpus.commit.op_class_0::SimdSha1Hash2            0      0.00%     71.43% # Class of committed instruction
system.switch_cpus.commit.op_class_0::SimdSha256Hash            0      0.00%     71.43% # Class of committed instruction
system.switch_cpus.commit.op_class_0::SimdSha256Hash2            0      0.00%     71.43% # Class of committed instruction
system.switch_cpus.commit.op_class_0::SimdShaSigma2            0      0.00%     71.43% # Class of committed instruction
system.switch_cpus.commit.op_class_0::SimdShaSigma3            0      0.00%     71.43% # Class of committed instruction
system.switch_cpus.commit.op_class_0::SimdPredAlu            0      0.00%     71.43% # Class of committed instruction
system.switch_cpus.commit.op_class_0::MemRead      3567032     22.01%     93.45% # Class of committed instruction
system.switch_cpus.commit.op_class_0::MemWrite      1061813      6.55%    100.00% # Class of committed instruction
system.switch_cpus.commit.op_class_0::FloatMemRead            0      0.00%    100.00% # Class of committed instruction
system.switch_cpus.commit.op_class_0::FloatMemWrite            0      0.00%    100.00% # Class of committed instruction
system.switch_cpus.commit.op_class_0::IprAccess            0      0.00%    100.00% # Class of committed instruction
system.switch_cpus.commit.op_class_0::InstPrefetch            0      0.00%    100.00% # Class of committed instruction
system.switch_cpus.commit.op_class_0::total     16204551                       # Class of committed instruction
system.switch_cpus.commit.refs                4628845                       # Number of memory references committed
system.switch_cpus.commit.swp_count                 0                       # Number of s/w prefetches committed
system.switch_cpus.commit.vec_insts                 0                       # Number of committed Vector instructions.
system.switch_cpus.committedInsts            10000001                       # Number of Instructions Simulated
system.switch_cpus.committedOps              16204551                       # Number of Ops (including micro ops) Simulated
system.switch_cpus.cpi                       5.487164                       # CPI: Cycles Per Instruction
system.switch_cpus.cpi_total                 5.487164                       # CPI: Total CPI of All Threads
system.switch_cpus.decode.BlockedCycles      48695006                       # Number of cycles decode is blocked
system.switch_cpus.decode.DecodedInsts       32351250                       # Number of instructions handled by decode
system.switch_cpus.decode.IdleCycles          1643925                       # Number of cycles decode is idle
system.switch_cpus.decode.RunCycles           2835222                       # Number of cycles decode is running
system.switch_cpus.decode.SquashCycles         181246                       # Number of cycles decode is squashing
system.switch_cpus.decode.UnblockCycles       1515320                       # Number of cycles decode is unblocking
system.switch_cpus.dtb.rdAccesses             4855635                       # TLB accesses on read requests
system.switch_cpus.dtb.rdMisses                 44490                       # TLB misses on read requests
system.switch_cpus.dtb.wrAccesses             1583241                       # TLB accesses on write requests
system.switch_cpus.dtb.wrMisses                  1602                       # TLB misses on write requests
system.switch_cpus.fetch.Branches             4298189                       # Number of branches that fetch encountered
system.switch_cpus.fetch.CacheLines           2922337                       # Number of cache lines fetched
system.switch_cpus.fetch.Cycles              51649417                       # Number of cycles fetch has run and was not squashing or blocked
system.switch_cpus.fetch.IcacheSquashes         22393                       # Number of outstanding Icache misses that were squashed
system.switch_cpus.fetch.Insts               23444210                       # Number of instructions fetch has processed
system.switch_cpus.fetch.PendingTrapStallCycles         1267                       # Number of stall cycles due to pending traps
system.switch_cpus.fetch.SquashCycles          362492                       # Number of cycles fetch has spent squashing
system.switch_cpus.fetch.branchRate          0.078332                       # Number of branch fetches per cycle
system.switch_cpus.fetch.icacheStallCycles      3038798                       # Number of cycles fetch is stalled on an Icache miss
system.switch_cpus.fetch.predictedBranches      1588222                       # Number of branches that fetch has predicted taken
system.switch_cpus.fetch.rate                0.427255                       # Number of inst fetches per cycle
system.switch_cpus.fetch.rateDist::samples     54870728                       # Number of instructions fetched each cycle (Total)
system.switch_cpus.fetch.rateDist::mean      0.686058                       # Number of instructions fetched each cycle (Total)
system.switch_cpus.fetch.rateDist::stdev     2.072463                       # Number of instructions fetched each cycle (Total)
system.switch_cpus.fetch.rateDist::underflows            0      0.00%      0.00% # Number of instructions fetched each cycle (Total)
system.switch_cpus.fetch.rateDist::0         48784204     88.91%     88.91% # Number of instructions fetched each cycle (Total)
system.switch_cpus.fetch.rateDist::1           110217      0.20%     89.11% # Number of instructions fetched each cycle (Total)
system.switch_cpus.fetch.rateDist::2           569447      1.04%     90.15% # Number of instructions fetched each cycle (Total)
system.switch_cpus.fetch.rateDist::3           306369      0.56%     90.70% # Number of instructions fetched each cycle (Total)
system.switch_cpus.fetch.rateDist::4           442805      0.81%     91.51% # Number of instructions fetched each cycle (Total)
system.switch_cpus.fetch.rateDist::5           369825      0.67%     92.19% # Number of instructions fetched each cycle (Total)
system.switch_cpus.fetch.rateDist::6          1153478      2.10%     94.29% # Number of instructions fetched each cycle (Total)
system.switch_cpus.fetch.rateDist::7           139987      0.26%     94.54% # Number of instructions fetched each cycle (Total)
system.switch_cpus.fetch.rateDist::8          2994396      5.46%    100.00% # Number of instructions fetched each cycle (Total)
system.switch_cpus.fetch.rateDist::overflows            0      0.00%    100.00% # Number of instructions fetched each cycle (Total)
system.switch_cpus.fetch.rateDist::min_value            0                       # Number of instructions fetched each cycle (Total)
system.switch_cpus.fetch.rateDist::max_value            8                       # Number of instructions fetched each cycle (Total)
system.switch_cpus.fetch.rateDist::total     54870728                       # Number of instructions fetched each cycle (Total)
system.switch_cpus.fp_regfile_writes               56                       # number of floating regfile writes
system.switch_cpus.idleCycles                     920                       # Total number of cycles that the CPU has spent unscheduled due to idling
system.switch_cpus.iew.branchMispredicts       192730                       # Number of branch mispredicts detected at execute
system.switch_cpus.iew.exec_branches          2411020                       # Number of branches executed
system.switch_cpus.iew.exec_nop                     0                       # number of nop insts executed
system.switch_cpus.iew.exec_rate             0.449035                       # Inst execution rate
system.switch_cpus.iew.exec_refs              6856355                       # number of memory reference insts executed
system.switch_cpus.iew.exec_stores            1583241                       # Number of stores executed
system.switch_cpus.iew.exec_swp                     0                       # number of swp insts executed
system.switch_cpus.iew.iewBlockCycles        30033503                       # Number of cycles IEW is blocking
system.switch_cpus.iew.iewDispLoadInsts       6675037                       # Number of dispatched load instructions
system.switch_cpus.iew.iewDispNonSpecInsts            0                       # Number of dispatched non-speculative instructions
system.switch_cpus.iew.iewDispSquashedInsts         5110                       # Number of squashed instructions skipped by dispatch
system.switch_cpus.iew.iewDispStoreInsts      2180417                       # Number of dispatched store instructions
system.switch_cpus.iew.iewDispatchedInsts     30665199                       # Number of instructions dispatched to IQ
system.switch_cpus.iew.iewExecLoadInsts       5273114                       # Number of load instructions executed
system.switch_cpus.iew.iewExecSquashedInsts       252072                       # Number of squashed instructions skipped in execute
system.switch_cpus.iew.iewExecutedInsts      24639291                       # Number of executed instructions
system.switch_cpus.iew.iewIQFullEvents         398042                       # Number of times the IQ has become full, causing a stall
system.switch_cpus.iew.iewIdleCycles                0                       # Number of cycles IEW is idle
system.switch_cpus.iew.iewLSQFullEvents       1669622                       # Number of times the LSQ has become full, causing a stall
system.switch_cpus.iew.iewSquashCycles         181246                       # Number of cycles IEW is squashing
system.switch_cpus.iew.iewUnblockCycles       2634616                       # Number of cycles IEW is unblocking
system.switch_cpus.iew.lsq.thread0.blockedLoads            0                       # Number of blocked loads due to partial load-store forwarding
system.switch_cpus.iew.lsq.thread0.cacheBlocked       232222                       # Number of times an access to memory failed due to the cache being blocked
system.switch_cpus.iew.lsq.thread0.forwLoads        51411                       # Number of loads that had data forwarded from stores
system.switch_cpus.iew.lsq.thread0.ignoredResponses           51                       # Number of memory responses ignored because the instruction is squashed
system.switch_cpus.iew.lsq.thread0.invAddrLoads            0                       # Number of loads ignored due to an invalid address
system.switch_cpus.iew.lsq.thread0.invAddrSwpfs            0                       # Number of software prefetches ignored due to an invalid address
system.switch_cpus.iew.lsq.thread0.memOrderViolation          226                       # Number of memory ordering violations
system.switch_cpus.iew.lsq.thread0.rescheduledLoads            0                       # Number of loads that were rescheduled
system.switch_cpus.iew.lsq.thread0.squashedLoads      3108004                       # Number of loads squashed
system.switch_cpus.iew.lsq.thread0.squashedStores      1118604                       # Number of stores squashed
system.switch_cpus.iew.memOrderViolationEvents          226                       # Number of memory order violations
system.switch_cpus.iew.predictedNotTakenIncorrect        96615                       # Number of branches that were predicted not taken incorrectly
system.switch_cpus.iew.predictedTakenIncorrect        96115                       # Number of branches that were predicted taken incorrectly
system.switch_cpus.iew.wb_consumers          28509578                       # num instructions consuming a value
system.switch_cpus.iew.wb_count              23940352                       # cumulative count of insts written-back
system.switch_cpus.iew.wb_fanout             0.632383                       # average fanout of values written-back
system.switch_cpus.iew.wb_producers          18028972                       # num instructions producing a value
system.switch_cpus.iew.wb_rate               0.436297                       # insts written-back per cycle
system.switch_cpus.iew.wb_sent               23956400                       # cumulative count of insts sent to commit
system.switch_cpus.int_regfile_reads         33796818                       # number of integer regfile reads
system.switch_cpus.int_regfile_writes        19946281                       # number of integer regfile writes
system.switch_cpus.ipc                       0.182243                       # IPC: Instructions Per Cycle
system.switch_cpus.ipc_total                 0.182243                       # IPC: Total IPC of All Threads
system.switch_cpus.iq.FU_type_0::No_OpClass        15856      0.06%      0.06% # Type of FU issued
system.switch_cpus.iq.FU_type_0::IntAlu      17871610     71.80%     71.86% # Type of FU issued
system.switch_cpus.iq.FU_type_0::IntMult         2538      0.01%     71.87% # Type of FU issued
system.switch_cpus.iq.FU_type_0::IntDiv             0      0.00%     71.87% # Type of FU issued
system.switch_cpus.iq.FU_type_0::FloatAdd            0      0.00%     71.87% # Type of FU issued
system.switch_cpus.iq.FU_type_0::FloatCmp            0      0.00%     71.87% # Type of FU issued
system.switch_cpus.iq.FU_type_0::FloatCvt            0      0.00%     71.87% # Type of FU issued
system.switch_cpus.iq.FU_type_0::FloatMult            0      0.00%     71.87% # Type of FU issued
system.switch_cpus.iq.FU_type_0::FloatMultAcc            0      0.00%     71.87% # Type of FU issued
system.switch_cpus.iq.FU_type_0::FloatDiv            0      0.00%     71.87% # Type of FU issued
system.switch_cpus.iq.FU_type_0::FloatMisc            0      0.00%     71.87% # Type of FU issued
system.switch_cpus.iq.FU_type_0::FloatSqrt            0      0.00%     71.87% # Type of FU issued
system.switch_cpus.iq.FU_type_0::SimdAdd            0      0.00%     71.87% # Type of FU issued
system.switch_cpus.iq.FU_type_0::SimdAddAcc            0      0.00%     71.87% # Type of FU issued
system.switch_cpus.iq.FU_type_0::SimdAlu            0      0.00%     71.87% # Type of FU issued
system.switch_cpus.iq.FU_type_0::SimdCmp            0      0.00%     71.87% # Type of FU issued
system.switch_cpus.iq.FU_type_0::SimdCvt            0      0.00%     71.87% # Type of FU issued
system.switch_cpus.iq.FU_type_0::SimdMisc            0      0.00%     71.87% # Type of FU issued
system.switch_cpus.iq.FU_type_0::SimdMult            0      0.00%     71.87% # Type of FU issued
system.switch_cpus.iq.FU_type_0::SimdMultAcc            0      0.00%     71.87% # Type of FU issued
system.switch_cpus.iq.FU_type_0::SimdShift            0      0.00%     71.87% # Type of FU issued
system.switch_cpus.iq.FU_type_0::SimdShiftAcc            0      0.00%     71.87% # Type of FU issued
system.switch_cpus.iq.FU_type_0::SimdDiv            0      0.00%     71.87% # Type of FU issued
system.switch_cpus.iq.FU_type_0::SimdSqrt            0      0.00%     71.87% # Type of FU issued
system.switch_cpus.iq.FU_type_0::SimdFloatAdd            0      0.00%     71.87% # Type of FU issued
system.switch_cpus.iq.FU_type_0::SimdFloatAlu            0      0.00%     71.87% # Type of FU issued
system.switch_cpus.iq.FU_type_0::SimdFloatCmp            0      0.00%     71.87% # Type of FU issued
system.switch_cpus.iq.FU_type_0::SimdFloatCvt            0      0.00%     71.87% # Type of FU issued
system.switch_cpus.iq.FU_type_0::SimdFloatDiv            0      0.00%     71.87% # Type of FU issued
system.switch_cpus.iq.FU_type_0::SimdFloatMisc            0      0.00%     71.87% # Type of FU issued
system.switch_cpus.iq.FU_type_0::SimdFloatMult            0      0.00%     71.87% # Type of FU issued
system.switch_cpus.iq.FU_type_0::SimdFloatMultAcc            0      0.00%     71.87% # Type of FU issued
system.switch_cpus.iq.FU_type_0::SimdFloatSqrt            0      0.00%     71.87% # Type of FU issued
system.switch_cpus.iq.FU_type_0::SimdReduceAdd            0      0.00%     71.87% # Type of FU issued
system.switch_cpus.iq.FU_type_0::SimdReduceAlu            0      0.00%     71.87% # Type of FU issued
system.switch_cpus.iq.FU_type_0::SimdReduceCmp            0      0.00%     71.87% # Type of FU issued
system.switch_cpus.iq.FU_type_0::SimdFloatReduceAdd            0      0.00%     71.87% # Type of FU issued
system.switch_cpus.iq.FU_type_0::SimdFloatReduceCmp            0      0.00%     71.87% # Type of FU issued
system.switch_cpus.iq.FU_type_0::SimdAes            0      0.00%     71.87% # Type of FU issued
system.switch_cpus.iq.FU_type_0::SimdAesMix            0      0.00%     71.87% # Type of FU issued
system.switch_cpus.iq.FU_type_0::SimdSha1Hash            0      0.00%     71.87% # Type of FU issued
system.switch_cpus.iq.FU_type_0::SimdSha1Hash2            0      0.00%     71.87% # Type of FU issued
system.switch_cpus.iq.FU_type_0::SimdSha256Hash            0      0.00%     71.87% # Type of FU issued
system.switch_cpus.iq.FU_type_0::SimdSha256Hash2            0      0.00%     71.87% # Type of FU issued
system.switch_cpus.iq.FU_type_0::SimdShaSigma2            0      0.00%     71.87% # Type of FU issued
system.switch_cpus.iq.FU_type_0::SimdShaSigma3            0      0.00%     71.87% # Type of FU issued
system.switch_cpus.iq.FU_type_0::SimdPredAlu            0      0.00%     71.87% # Type of FU issued
system.switch_cpus.iq.FU_type_0::MemRead      5346530     21.48%     93.35% # Type of FU issued
system.switch_cpus.iq.FU_type_0::MemWrite      1654829      6.65%    100.00% # Type of FU issued
system.switch_cpus.iq.FU_type_0::FloatMemRead            0      0.00%    100.00% # Type of FU issued
system.switch_cpus.iq.FU_type_0::FloatMemWrite            0      0.00%    100.00% # Type of FU issued
system.switch_cpus.iq.FU_type_0::IprAccess            0      0.00%    100.00% # Type of FU issued
system.switch_cpus.iq.FU_type_0::InstPrefetch            0      0.00%    100.00% # Type of FU issued
system.switch_cpus.iq.FU_type_0::total       24891363                       # Type of FU issued
system.switch_cpus.iq.fp_alu_accesses               0                       # Number of floating point alu accesses
system.switch_cpus.iq.fp_inst_queue_reads            0                       # Number of floating instruction queue reads
system.switch_cpus.iq.fp_inst_queue_wakeup_accesses            0                       # Number of floating instruction queue wakeup accesses
system.switch_cpus.iq.fp_inst_queue_writes            0                       # Number of floating instruction queue writes
system.switch_cpus.iq.fu_busy_cnt              291436                       # FU busy when requested
system.switch_cpus.iq.fu_busy_rate           0.011708                       # FU busy rate (busy events/executed inst)
system.switch_cpus.iq.fu_full::No_OpClass            0      0.00%      0.00% # attempts to use FU when none available
system.switch_cpus.iq.fu_full::IntAlu           78781     27.03%     27.03% # attempts to use FU when none available
system.switch_cpus.iq.fu_full::IntMult              0      0.00%     27.03% # attempts to use FU when none available
system.switch_cpus.iq.fu_full::IntDiv               0      0.00%     27.03% # attempts to use FU when none available
system.switch_cpus.iq.fu_full::FloatAdd             0      0.00%     27.03% # attempts to use FU when none available
system.switch_cpus.iq.fu_full::FloatCmp             0      0.00%     27.03% # attempts to use FU when none available
system.switch_cpus.iq.fu_full::FloatCvt             0      0.00%     27.03% # attempts to use FU when none available
system.switch_cpus.iq.fu_full::FloatMult            0      0.00%     27.03% # attempts to use FU when none available
system.switch_cpus.iq.fu_full::FloatMultAcc            0      0.00%     27.03% # attempts to use FU when none available
system.switch_cpus.iq.fu_full::FloatDiv             0      0.00%     27.03% # attempts to use FU when none available
system.switch_cpus.iq.fu_full::FloatMisc            0      0.00%     27.03% # attempts to use FU when none available
system.switch_cpus.iq.fu_full::FloatSqrt            0      0.00%     27.03% # attempts to use FU when none available
system.switch_cpus.iq.fu_full::SimdAdd              0      0.00%     27.03% # attempts to use FU when none available
system.switch_cpus.iq.fu_full::SimdAddAcc            0      0.00%     27.03% # attempts to use FU when none available
system.switch_cpus.iq.fu_full::SimdAlu              0      0.00%     27.03% # attempts to use FU when none available
system.switch_cpus.iq.fu_full::SimdCmp              0      0.00%     27.03% # attempts to use FU when none available
system.switch_cpus.iq.fu_full::SimdCvt              0      0.00%     27.03% # attempts to use FU when none available
system.switch_cpus.iq.fu_full::SimdMisc             0      0.00%     27.03% # attempts to use FU when none available
system.switch_cpus.iq.fu_full::SimdMult             0      0.00%     27.03% # attempts to use FU when none available
system.switch_cpus.iq.fu_full::SimdMultAcc            0      0.00%     27.03% # attempts to use FU when none available
system.switch_cpus.iq.fu_full::SimdShift            0      0.00%     27.03% # attempts to use FU when none available
system.switch_cpus.iq.fu_full::SimdShiftAcc            0      0.00%     27.03% # attempts to use FU when none available
system.switch_cpus.iq.fu_full::SimdDiv              0      0.00%     27.03% # attempts to use FU when none available
system.switch_cpus.iq.fu_full::SimdSqrt             0      0.00%     27.03% # attempts to use FU when none available
system.switch_cpus.iq.fu_full::SimdFloatAdd            0      0.00%     27.03% # attempts to use FU when none available
system.switch_cpus.iq.fu_full::SimdFloatAlu            0      0.00%     27.03% # attempts to use FU when none available
system.switch_cpus.iq.fu_full::SimdFloatCmp            0      0.00%     27.03% # attempts to use FU when none available
system.switch_cpus.iq.fu_full::SimdFloatCvt            0      0.00%     27.03% # attempts to use FU when none available
system.switch_cpus.iq.fu_full::SimdFloatDiv            0      0.00%     27.03% # attempts to use FU when none available
system.switch_cpus.iq.fu_full::SimdFloatMisc            0      0.00%     27.03% # attempts to use FU when none available
system.switch_cpus.iq.fu_full::SimdFloatMult            0      0.00%     27.03% # attempts to use FU when none available
system.switch_cpus.iq.fu_full::SimdFloatMultAcc            0      0.00%     27.03% # attempts to use FU when none available
system.switch_cpus.iq.fu_full::SimdFloatSqrt            0      0.00%     27.03% # attempts to use FU when none available
system.switch_cpus.iq.fu_full::SimdReduceAdd            0      0.00%     27.03% # attempts to use FU when none available
system.switch_cpus.iq.fu_full::SimdReduceAlu            0      0.00%     27.03% # attempts to use FU when none available
system.switch_cpus.iq.fu_full::SimdReduceCmp            0      0.00%     27.03% # attempts to use FU when none available
system.switch_cpus.iq.fu_full::SimdFloatReduceAdd            0      0.00%     27.03% # attempts to use FU when none available
system.switch_cpus.iq.fu_full::SimdFloatReduceCmp            0      0.00%     27.03% # attempts to use FU when none available
system.switch_cpus.iq.fu_full::SimdAes              0      0.00%     27.03% # attempts to use FU when none available
system.switch_cpus.iq.fu_full::SimdAesMix            0      0.00%     27.03% # attempts to use FU when none available
system.switch_cpus.iq.fu_full::SimdSha1Hash            0      0.00%     27.03% # attempts to use FU when none available
system.switch_cpus.iq.fu_full::SimdSha1Hash2            0      0.00%     27.03% # attempts to use FU when none available
system.switch_cpus.iq.fu_full::SimdSha256Hash            0      0.00%     27.03% # attempts to use FU when none available
system.switch_cpus.iq.fu_full::SimdSha256Hash2            0      0.00%     27.03% # attempts to use FU when none available
system.switch_cpus.iq.fu_full::SimdShaSigma2            0      0.00%     27.03% # attempts to use FU when none available
system.switch_cpus.iq.fu_full::SimdShaSigma3            0      0.00%     27.03% # attempts to use FU when none available
system.switch_cpus.iq.fu_full::SimdPredAlu            0      0.00%     27.03% # attempts to use FU when none available
system.switch_cpus.iq.fu_full::MemRead          71790     24.63%     51.67% # attempts to use FU when none available
system.switch_cpus.iq.fu_full::MemWrite        140865     48.33%    100.00% # attempts to use FU when none available
system.switch_cpus.iq.fu_full::FloatMemRead            0      0.00%    100.00% # attempts to use FU when none available
system.switch_cpus.iq.fu_full::FloatMemWrite            0      0.00%    100.00% # attempts to use FU when none available
system.switch_cpus.iq.fu_full::IprAccess            0      0.00%    100.00% # attempts to use FU when none available
system.switch_cpus.iq.fu_full::InstPrefetch            0      0.00%    100.00% # attempts to use FU when none available
system.switch_cpus.iq.int_alu_accesses       25166943                       # Number of integer alu accesses
system.switch_cpus.iq.int_inst_queue_reads    104966830                       # Number of integer instruction queue reads
system.switch_cpus.iq.int_inst_queue_wakeup_accesses     23940352                       # Number of integer instruction queue wakeup accesses
system.switch_cpus.iq.int_inst_queue_writes     45126058                       # Number of integer instruction queue writes
system.switch_cpus.iq.iqInstsAdded           30665199                       # Number of instructions added to the IQ (excludes non-spec)
system.switch_cpus.iq.iqInstsIssued          24891363                       # Number of instructions issued
system.switch_cpus.iq.iqSquashedInstsExamined     14460643                       # Number of squashed instructions iterated over during squash; mainly for profiling
system.switch_cpus.iq.iqSquashedInstsIssued        21940                       # Number of squashed instructions issued
system.switch_cpus.iq.iqSquashedOperandsExamined     23633237                       # Number of squashed operands that are examined and possibly removed from graph
system.switch_cpus.iq.issued_per_cycle::samples     54870728                       # Number of insts issued each cycle
system.switch_cpus.iq.issued_per_cycle::mean     0.453636                       # Number of insts issued each cycle
system.switch_cpus.iq.issued_per_cycle::stdev     1.165917                       # Number of insts issued each cycle
system.switch_cpus.iq.issued_per_cycle::underflows            0      0.00%      0.00% # Number of insts issued each cycle
system.switch_cpus.iq.issued_per_cycle::0     44117987     80.40%     80.40% # Number of insts issued each cycle
system.switch_cpus.iq.issued_per_cycle::1      4661709      8.50%     88.90% # Number of insts issued each cycle
system.switch_cpus.iq.issued_per_cycle::2      2404703      4.38%     93.28% # Number of insts issued each cycle
system.switch_cpus.iq.issued_per_cycle::3      1624043      2.96%     96.24% # Number of insts issued each cycle
system.switch_cpus.iq.issued_per_cycle::4       875296      1.60%     97.84% # Number of insts issued each cycle
system.switch_cpus.iq.issued_per_cycle::5       502470      0.92%     98.75% # Number of insts issued each cycle
system.switch_cpus.iq.issued_per_cycle::6       365918      0.67%     99.42% # Number of insts issued each cycle
system.switch_cpus.iq.issued_per_cycle::7       209739      0.38%     99.80% # Number of insts issued each cycle
system.switch_cpus.iq.issued_per_cycle::8       108863      0.20%    100.00% # Number of insts issued each cycle
system.switch_cpus.iq.issued_per_cycle::overflows            0      0.00%    100.00% # Number of insts issued each cycle
system.switch_cpus.iq.issued_per_cycle::min_value            0                       # Number of insts issued each cycle
system.switch_cpus.iq.issued_per_cycle::max_value            8                       # Number of insts issued each cycle
system.switch_cpus.iq.issued_per_cycle::total     54870728                       # Number of insts issued each cycle
system.switch_cpus.iq.rate                   0.453629                       # Inst issue rate
system.switch_cpus.iq.vec_alu_accesses              0                       # Number of vector alu accesses
system.switch_cpus.iq.vec_inst_queue_reads            0                       # Number of vector instruction queue reads
system.switch_cpus.iq.vec_inst_queue_wakeup_accesses            0                       # Number of vector instruction queue wakeup accesses
system.switch_cpus.iq.vec_inst_queue_writes            0                       # Number of vector instruction queue writes
system.switch_cpus.itb.rdAccesses                   0                       # TLB accesses on read requests
system.switch_cpus.itb.rdMisses                     0                       # TLB misses on read requests
system.switch_cpus.itb.wrAccesses             2922550                       # TLB accesses on write requests
system.switch_cpus.itb.wrMisses                   215                       # TLB misses on write requests
system.switch_cpus.memDep0.conflictingLoads       378332                       # Number of conflicting loads.
system.switch_cpus.memDep0.conflictingStores       495206                       # Number of conflicting stores.
system.switch_cpus.memDep0.insertedLoads      6675037                       # Number of loads inserted to the mem dependence unit.
system.switch_cpus.memDep0.insertedStores      2180417                       # Number of stores inserted to the mem dependence unit.
system.switch_cpus.misc_regfile_reads        12762709                       # number of misc regfile reads
system.switch_cpus.misc_regfile_writes              1                       # number of misc regfile writes
system.switch_cpus.numCycles                 54871648                       # number of cpu cycles simulated
system.switch_cpus.numWorkItemsCompleted            0                       # number of work items this cpu completed
system.switch_cpus.numWorkItemsStarted              0                       # number of work items this cpu started
system.switch_cpus.rename.BlockCycles        39661908                       # Number of cycles rename is blocking
system.switch_cpus.rename.CommittedMaps      20622242                       # Number of HB maps that are committed
system.switch_cpus.rename.IQFullEvents        4783741                       # Number of times rename has blocked due to IQ full
system.switch_cpus.rename.IdleCycles          2097669                       # Number of cycles rename is idle
system.switch_cpus.rename.LQFullEvents        1609681                       # Number of times rename has blocked due to LQ full
system.switch_cpus.rename.ROBFullEvents        182185                       # Number of times rename has blocked due to ROB full
system.switch_cpus.rename.RenameLookups      83515590                       # Number of register rename lookups that rename has made
system.switch_cpus.rename.RenamedInsts       31439266                       # Number of instructions processed by rename
system.switch_cpus.rename.RenamedOperands     39754238                       # Number of destination operands rename has renamed
system.switch_cpus.rename.RunCycles           3582439                       # Number of cycles rename is running
system.switch_cpus.rename.SQFullEvents        2934507                       # Number of times rename has blocked due to SQ full
system.switch_cpus.rename.SquashCycles         181246                       # Number of cycles rename is squashing
system.switch_cpus.rename.UnblockCycles       9347457                       # Number of cycles rename is unblocking
system.switch_cpus.rename.UndoneMaps         19131984                       # Number of HB maps that are undone due to squashing
system.switch_cpus.rename.int_rename_lookups     47411301                       # Number of integer rename lookups
system.switch_cpus.rename.serializeStallCycles            0                       # count of cycles rename stalled for serializing inst
system.switch_cpus.rename.serializingInsts            0                       # count of serializing insts renamed
system.switch_cpus.rename.skidInsts           9409288                       # count of insts added to the skid buffer
system.switch_cpus.rename.tempSerializingInsts            0                       # count of temporary serializing insts renamed
system.switch_cpus.rob.rob_reads             82829961                       # The number of ROB reads
system.switch_cpus.rob.rob_writes            63415170                       # The number of ROB writes
system.switch_cpus.timesIdled                      13                       # Number of times that the entire CPU went into an idle state and unscheduled itself
system.tol2bus.snoop_filter.hit_multi_requests            0                       # Number of requests hitting in the snoop filter with multiple (>1) holders of the requested data.
system.tol2bus.snoop_filter.hit_multi_snoops            0                       # Number of snoops hitting in the snoop filter with multiple (>1) holders of the requested data.
system.tol2bus.snoop_filter.hit_single_requests      2091448                       # Number of requests hitting in the snoop filter with a single holder of the requested data.
system.tol2bus.snoop_filter.hit_single_snoops        10077                       # Number of snoops hitting in the snoop filter with a single holder of the requested data.
system.tol2bus.snoop_filter.tot_requests      4183941                       # Total number of requests made to the snoop filter.
system.tol2bus.snoop_filter.tot_snoops          10077                       # Total number of snoops made to the snoop filter.
system.membus.pwrStateResidencyTicks::UNDEFINED 92808531261000                       # Cumulative time (in ticks) in various power states
system.membus.trans_dist::ReadResp             355351                       # Transaction distribution
system.membus.trans_dist::WritebackDirty       135055                       # Transaction distribution
system.membus.trans_dist::CleanEvict           291196                       # Transaction distribution
system.membus.trans_dist::ReadExReq             79111                       # Transaction distribution
system.membus.trans_dist::ReadExResp            79111                       # Transaction distribution
system.membus.trans_dist::ReadSharedReq        355351                       # Transaction distribution
system.membus.pkt_count_system.l2.mem_side::system.mem_ctrls.port      1295175                       # Packet count per connected master and slave (bytes)
system.membus.pkt_count_system.l2.mem_side::total      1295175                       # Packet count per connected master and slave (bytes)
system.membus.pkt_count::total                1295175                       # Packet count per connected master and slave (bytes)
system.membus.pkt_size_system.l2.mem_side::system.mem_ctrls.port     36449088                       # Cumulative packet size per connected master and slave (bytes)
system.membus.pkt_size_system.l2.mem_side::total     36449088                       # Cumulative packet size per connected master and slave (bytes)
system.membus.pkt_size::total                36449088                       # Cumulative packet size per connected master and slave (bytes)
system.membus.snoops                                0                       # Total snoops (count)
system.membus.snoopTraffic                          0                       # Total snoop traffic (bytes)
system.membus.snoop_fanout::samples            434462                       # Request fanout histogram
system.membus.snoop_fanout::mean                    0                       # Request fanout histogram
system.membus.snoop_fanout::stdev                   0                       # Request fanout histogram
system.membus.snoop_fanout::underflows              0      0.00%      0.00% # Request fanout histogram
system.membus.snoop_fanout::0                  434462    100.00%    100.00% # Request fanout histogram
system.membus.snoop_fanout::1                       0      0.00%    100.00% # Request fanout histogram
system.membus.snoop_fanout::overflows               0      0.00%    100.00% # Request fanout histogram
system.membus.snoop_fanout::min_value               0                       # Request fanout histogram
system.membus.snoop_fanout::max_value               0                       # Request fanout histogram
system.membus.snoop_fanout::total              434462                       # Request fanout histogram
system.membus.reqLayer2.occupancy          1493563500                       # Layer occupancy (ticks)
system.membus.reqLayer2.utilization               5.4                       # Layer utilization (%)
system.membus.respLayer1.occupancy         2291789750                       # Layer occupancy (ticks)
system.membus.respLayer1.utilization              8.4                       # Layer utilization (%)
system.switch_cpus.pwrStateResidencyTicks::OFF  27435834750                       # Cumulative time (in ticks) in various power states
system.switch_cpus.dtb.walker.pwrStateResidencyTicks::UNDEFINED 92808531261000                       # Cumulative time (in ticks) in various power states
system.switch_cpus.itb.walker.pwrStateResidencyTicks::UNDEFINED 92808531261000                       # Cumulative time (in ticks) in various power states
system.tol2bus.pwrStateResidencyTicks::UNDEFINED 92808531261000                       # Cumulative time (in ticks) in various power states
system.tol2bus.trans_dist::ReadResp           2012725                       # Transaction distribution
system.tol2bus.trans_dist::WritebackDirty       293467                       # Transaction distribution
system.tol2bus.trans_dist::CleanEvict         2227332                       # Transaction distribution
system.tol2bus.trans_dist::ReadExReq            79765                       # Transaction distribution
system.tol2bus.trans_dist::ReadExResp           79765                       # Transaction distribution
system.tol2bus.trans_dist::ReadCleanReq            18                       # Transaction distribution
system.tol2bus.trans_dist::ReadSharedReq      2012710                       # Transaction distribution
system.tol2bus.pkt_count_system.cpu.icache.mem_side::system.l2.cpu_side           36                       # Packet count per connected master and slave (bytes)
system.tol2bus.pkt_count_system.cpu.dcache.mem_side::system.l2.cpu_side      6276395                       # Packet count per connected master and slave (bytes)
system.tol2bus.pkt_count::total               6276431                       # Packet count per connected master and slave (bytes)
system.tol2bus.pkt_size_system.cpu.icache.mem_side::system.l2.cpu_side         1152                       # Cumulative packet size per connected master and slave (bytes)
system.tol2bus.pkt_size_system.cpu.dcache.mem_side::system.l2.cpu_side    144056576                       # Cumulative packet size per connected master and slave (bytes)
system.tol2bus.pkt_size::total              144057728                       # Cumulative packet size per connected master and slave (bytes)
system.tol2bus.snoops                          429351                       # Total snoops (count)
system.tol2bus.snoopTraffic                   8643520                       # Total snoop traffic (bytes)
system.tol2bus.snoop_fanout::samples          2521844                       # Request fanout histogram
system.tol2bus.snoop_fanout::mean            0.003996                       # Request fanout histogram
system.tol2bus.snoop_fanout::stdev           0.063087                       # Request fanout histogram
system.tol2bus.snoop_fanout::underflows             0      0.00%      0.00% # Request fanout histogram
system.tol2bus.snoop_fanout::0                2511767     99.60%     99.60% # Request fanout histogram
system.tol2bus.snoop_fanout::1                  10077      0.40%    100.00% # Request fanout histogram
system.tol2bus.snoop_fanout::2                      0      0.00%    100.00% # Request fanout histogram
system.tol2bus.snoop_fanout::3                      0      0.00%    100.00% # Request fanout histogram
system.tol2bus.snoop_fanout::4                      0      0.00%    100.00% # Request fanout histogram
system.tol2bus.snoop_fanout::overflows              0      0.00%    100.00% # Request fanout histogram
system.tol2bus.snoop_fanout::min_value              0                       # Request fanout histogram
system.tol2bus.snoop_fanout::max_value              1                       # Request fanout histogram
system.tol2bus.snoop_fanout::total            2521844                       # Request fanout histogram
system.tol2bus.reqLayer0.occupancy         2250380500                       # Layer occupancy (ticks)
system.tol2bus.reqLayer0.utilization              8.2                       # Layer utilization (%)
system.tol2bus.respLayer1.occupancy        3138703500                       # Layer occupancy (ticks)
system.tol2bus.respLayer1.utilization            11.4                       # Layer utilization (%)
system.tol2bus.respLayer0.occupancy             25500                       # Layer occupancy (ticks)
system.tol2bus.respLayer0.utilization             0.0                       # Layer utilization (%)
system.voltage_domain.voltage                       1                       # Voltage in Volts
system.clk_domain.clock                          1000                       # Clock period in ticks
system.l2.pwrStateResidencyTicks::UNDEFINED 92808531261000                       # Cumulative time (in ticks) in various power states
system.l2.demand_hits::.switch_cpus.data      1658030                       # number of demand (read+write) hits
system.l2.demand_hits::total                  1658030                       # number of demand (read+write) hits
system.l2.overall_hits::.switch_cpus.data      1658030                       # number of overall hits
system.l2.overall_hits::total                 1658030                       # number of overall hits
system.l2.demand_misses::.cpu.inst                  1                       # number of demand (read+write) misses
system.l2.demand_misses::.cpu.data                  3                       # number of demand (read+write) misses
system.l2.demand_misses::.switch_cpus.inst           17                       # number of demand (read+write) misses
system.l2.demand_misses::.switch_cpus.data       434442                       # number of demand (read+write) misses
system.l2.demand_misses::total                 434463                       # number of demand (read+write) misses
system.l2.overall_misses::.cpu.inst                 1                       # number of overall misses
system.l2.overall_misses::.cpu.data                 3                       # number of overall misses
system.l2.overall_misses::.switch_cpus.inst           17                       # number of overall misses
system.l2.overall_misses::.switch_cpus.data       434442                       # number of overall misses
system.l2.overall_misses::total                434463                       # number of overall misses
system.l2.demand_miss_latency::.switch_cpus.inst      1515000                       # number of demand (read+write) miss cycles
system.l2.demand_miss_latency::.switch_cpus.data  35654004000                       # number of demand (read+write) miss cycles
system.l2.demand_miss_latency::total      35655519000                       # number of demand (read+write) miss cycles
system.l2.overall_miss_latency::.switch_cpus.inst      1515000                       # number of overall miss cycles
system.l2.overall_miss_latency::.switch_cpus.data  35654004000                       # number of overall miss cycles
system.l2.overall_miss_latency::total     35655519000                       # number of overall miss cycles
system.l2.demand_accesses::.cpu.inst                1                       # number of demand (read+write) accesses
system.l2.demand_accesses::.cpu.data                3                       # number of demand (read+write) accesses
system.l2.demand_accesses::.switch_cpus.inst           17                       # number of demand (read+write) accesses
system.l2.demand_accesses::.switch_cpus.data      2092472                       # number of demand (read+write) accesses
system.l2.demand_accesses::total              2092493                       # number of demand (read+write) accesses
system.l2.overall_accesses::.cpu.inst               1                       # number of overall (read+write) accesses
system.l2.overall_accesses::.cpu.data               3                       # number of overall (read+write) accesses
system.l2.overall_accesses::.switch_cpus.inst           17                       # number of overall (read+write) accesses
system.l2.overall_accesses::.switch_cpus.data      2092472                       # number of overall (read+write) accesses
system.l2.overall_accesses::total             2092493                       # number of overall (read+write) accesses
system.l2.demand_miss_rate::.cpu.inst               1                       # miss rate for demand accesses
system.l2.demand_miss_rate::.cpu.data               1                       # miss rate for demand accesses
system.l2.demand_miss_rate::.switch_cpus.inst            1                       # miss rate for demand accesses
system.l2.demand_miss_rate::.switch_cpus.data     0.207621                       # miss rate for demand accesses
system.l2.demand_miss_rate::total            0.207629                       # miss rate for demand accesses
system.l2.overall_miss_rate::.cpu.inst              1                       # miss rate for overall accesses
system.l2.overall_miss_rate::.cpu.data              1                       # miss rate for overall accesses
system.l2.overall_miss_rate::.switch_cpus.inst            1                       # miss rate for overall accesses
system.l2.overall_miss_rate::.switch_cpus.data     0.207621                       # miss rate for overall accesses
system.l2.overall_miss_rate::total           0.207629                       # miss rate for overall accesses
system.l2.demand_avg_miss_latency::.switch_cpus.inst 89117.647059                       # average overall miss latency
system.l2.demand_avg_miss_latency::.switch_cpus.data 82068.501664                       # average overall miss latency
system.l2.demand_avg_miss_latency::total 82068.021903                       # average overall miss latency
system.l2.overall_avg_miss_latency::.switch_cpus.inst 89117.647059                       # average overall miss latency
system.l2.overall_avg_miss_latency::.switch_cpus.data 82068.501664                       # average overall miss latency
system.l2.overall_avg_miss_latency::total 82068.021903                       # average overall miss latency
system.l2.blocked_cycles::no_mshrs                  0                       # number of cycles access was blocked
system.l2.blocked_cycles::no_targets                0                       # number of cycles access was blocked
system.l2.blocked::no_mshrs                         0                       # number of cycles access was blocked
system.l2.blocked::no_targets                       0                       # number of cycles access was blocked
system.l2.avg_blocked_cycles::no_mshrs            nan                       # average number of cycles each access was blocked
system.l2.avg_blocked_cycles::no_targets          nan                       # average number of cycles each access was blocked
system.l2.writebacks::.writebacks              135055                       # number of writebacks
system.l2.writebacks::total                    135055                       # number of writebacks
system.l2.demand_mshr_misses::.switch_cpus.inst           17                       # number of demand (read+write) MSHR misses
system.l2.demand_mshr_misses::.switch_cpus.data       434442                       # number of demand (read+write) MSHR misses
system.l2.demand_mshr_misses::total            434459                       # number of demand (read+write) MSHR misses
system.l2.overall_mshr_misses::.switch_cpus.inst           17                       # number of overall MSHR misses
system.l2.overall_mshr_misses::.switch_cpus.data       434442                       # number of overall MSHR misses
system.l2.overall_mshr_misses::total           434459                       # number of overall MSHR misses
system.l2.demand_mshr_miss_latency::.switch_cpus.inst      1345000                       # number of demand (read+write) MSHR miss cycles
system.l2.demand_mshr_miss_latency::.switch_cpus.data  31309594000                       # number of demand (read+write) MSHR miss cycles
system.l2.demand_mshr_miss_latency::total  31310939000                       # number of demand (read+write) MSHR miss cycles
system.l2.overall_mshr_miss_latency::.switch_cpus.inst      1345000                       # number of overall MSHR miss cycles
system.l2.overall_mshr_miss_latency::.switch_cpus.data  31309594000                       # number of overall MSHR miss cycles
system.l2.overall_mshr_miss_latency::total  31310939000                       # number of overall MSHR miss cycles
system.l2.demand_mshr_miss_rate::.switch_cpus.inst            1                       # mshr miss rate for demand accesses
system.l2.demand_mshr_miss_rate::.switch_cpus.data     0.207621                       # mshr miss rate for demand accesses
system.l2.demand_mshr_miss_rate::total       0.207627                       # mshr miss rate for demand accesses
system.l2.overall_mshr_miss_rate::.switch_cpus.inst            1                       # mshr miss rate for overall accesses
system.l2.overall_mshr_miss_rate::.switch_cpus.data     0.207621                       # mshr miss rate for overall accesses
system.l2.overall_mshr_miss_rate::total      0.207627                       # mshr miss rate for overall accesses
system.l2.demand_avg_mshr_miss_latency::.switch_cpus.inst 79117.647059                       # average overall mshr miss latency
system.l2.demand_avg_mshr_miss_latency::.switch_cpus.data 72068.524682                       # average overall mshr miss latency
system.l2.demand_avg_mshr_miss_latency::total 72068.800508                       # average overall mshr miss latency
system.l2.overall_avg_mshr_miss_latency::.switch_cpus.inst 79117.647059                       # average overall mshr miss latency
system.l2.overall_avg_mshr_miss_latency::.switch_cpus.data 72068.524682                       # average overall mshr miss latency
system.l2.overall_avg_mshr_miss_latency::total 72068.800508                       # average overall mshr miss latency
system.l2.replacements                         429351                       # number of replacements
system.l2.WritebackDirty_hits::.writebacks       158412                       # number of WritebackDirty hits
system.l2.WritebackDirty_hits::total           158412                       # number of WritebackDirty hits
system.l2.WritebackDirty_accesses::.writebacks       158412                       # number of WritebackDirty accesses(hits+misses)
system.l2.WritebackDirty_accesses::total       158412                       # number of WritebackDirty accesses(hits+misses)
system.l2.CleanEvict_mshr_misses::.writebacks         6978                       # number of CleanEvict MSHR misses
system.l2.CleanEvict_mshr_misses::total          6978                       # number of CleanEvict MSHR misses
system.l2.CleanEvict_mshr_miss_rate::.writebacks          inf                       # mshr miss rate for CleanEvict accesses
system.l2.CleanEvict_mshr_miss_rate::total          inf                       # mshr miss rate for CleanEvict accesses
system.l2.ReadExReq_hits::.switch_cpus.data          654                       # number of ReadExReq hits
system.l2.ReadExReq_hits::total                   654                       # number of ReadExReq hits
system.l2.ReadExReq_misses::.switch_cpus.data        79111                       # number of ReadExReq misses
system.l2.ReadExReq_misses::total               79111                       # number of ReadExReq misses
system.l2.ReadExReq_miss_latency::.switch_cpus.data   6621474500                       # number of ReadExReq miss cycles
system.l2.ReadExReq_miss_latency::total    6621474500                       # number of ReadExReq miss cycles
system.l2.ReadExReq_accesses::.switch_cpus.data        79765                       # number of ReadExReq accesses(hits+misses)
system.l2.ReadExReq_accesses::total             79765                       # number of ReadExReq accesses(hits+misses)
system.l2.ReadExReq_miss_rate::.switch_cpus.data     0.991801                       # miss rate for ReadExReq accesses
system.l2.ReadExReq_miss_rate::total         0.991801                       # miss rate for ReadExReq accesses
system.l2.ReadExReq_avg_miss_latency::.switch_cpus.data 83698.531178                       # average ReadExReq miss latency
system.l2.ReadExReq_avg_miss_latency::total 83698.531178                       # average ReadExReq miss latency
system.l2.ReadExReq_mshr_misses::.switch_cpus.data        79111                       # number of ReadExReq MSHR misses
system.l2.ReadExReq_mshr_misses::total          79111                       # number of ReadExReq MSHR misses
system.l2.ReadExReq_mshr_miss_latency::.switch_cpus.data   5830364500                       # number of ReadExReq MSHR miss cycles
system.l2.ReadExReq_mshr_miss_latency::total   5830364500                       # number of ReadExReq MSHR miss cycles
system.l2.ReadExReq_mshr_miss_rate::.switch_cpus.data     0.991801                       # mshr miss rate for ReadExReq accesses
system.l2.ReadExReq_mshr_miss_rate::total     0.991801                       # mshr miss rate for ReadExReq accesses
system.l2.ReadExReq_avg_mshr_miss_latency::.switch_cpus.data 73698.531178                       # average ReadExReq mshr miss latency
system.l2.ReadExReq_avg_mshr_miss_latency::total 73698.531178                       # average ReadExReq mshr miss latency
system.l2.ReadCleanReq_misses::.cpu.inst            1                       # number of ReadCleanReq misses
system.l2.ReadCleanReq_misses::.switch_cpus.inst           17                       # number of ReadCleanReq misses
system.l2.ReadCleanReq_misses::total               18                       # number of ReadCleanReq misses
system.l2.ReadCleanReq_miss_latency::.switch_cpus.inst      1515000                       # number of ReadCleanReq miss cycles
system.l2.ReadCleanReq_miss_latency::total      1515000                       # number of ReadCleanReq miss cycles
system.l2.ReadCleanReq_accesses::.cpu.inst            1                       # number of ReadCleanReq accesses(hits+misses)
system.l2.ReadCleanReq_accesses::.switch_cpus.inst           17                       # number of ReadCleanReq accesses(hits+misses)
system.l2.ReadCleanReq_accesses::total             18                       # number of ReadCleanReq accesses(hits+misses)
system.l2.ReadCleanReq_miss_rate::.cpu.inst            1                       # miss rate for ReadCleanReq accesses
system.l2.ReadCleanReq_miss_rate::.switch_cpus.inst            1                       # miss rate for ReadCleanReq accesses
system.l2.ReadCleanReq_miss_rate::total             1                       # miss rate for ReadCleanReq accesses
system.l2.ReadCleanReq_avg_miss_latency::.switch_cpus.inst 89117.647059                       # average ReadCleanReq miss latency
system.l2.ReadCleanReq_avg_miss_latency::total 84166.666667                       # average ReadCleanReq miss latency
system.l2.ReadCleanReq_mshr_misses::.switch_cpus.inst           17                       # number of ReadCleanReq MSHR misses
system.l2.ReadCleanReq_mshr_misses::total           17                       # number of ReadCleanReq MSHR misses
system.l2.ReadCleanReq_mshr_miss_latency::.switch_cpus.inst      1345000                       # number of ReadCleanReq MSHR miss cycles
system.l2.ReadCleanReq_mshr_miss_latency::total      1345000                       # number of ReadCleanReq MSHR miss cycles
system.l2.ReadCleanReq_mshr_miss_rate::.switch_cpus.inst            1                       # mshr miss rate for ReadCleanReq accesses
system.l2.ReadCleanReq_mshr_miss_rate::total     0.944444                       # mshr miss rate for ReadCleanReq accesses
system.l2.ReadCleanReq_avg_mshr_miss_latency::.switch_cpus.inst 79117.647059                       # average ReadCleanReq mshr miss latency
system.l2.ReadCleanReq_avg_mshr_miss_latency::total 79117.647059                       # average ReadCleanReq mshr miss latency
system.l2.ReadSharedReq_hits::.switch_cpus.data      1657376                       # number of ReadSharedReq hits
system.l2.ReadSharedReq_hits::total           1657376                       # number of ReadSharedReq hits
system.l2.ReadSharedReq_misses::.cpu.data            3                       # number of ReadSharedReq misses
system.l2.ReadSharedReq_misses::.switch_cpus.data       355331                       # number of ReadSharedReq misses
[...]
system.cpu.icache.tags.data_accesses         22096747                       # Number of data accesses
system.cpu.dtb.walker.pwrStateResidencyTicks::UNDEFINED 92915335592500                       # Cumulative time (in ticks) in various power states
system.cpu.interrupts.clk_domain.clock           8000                       # Clock period in ticks
system.cpu.itb_walker_cache.pwrStateResidencyTicks::UNDEFINED 92915335592500                       # Cumulative time (in ticks) in various power states
system.cpu.itb_walker_cache.blocked_cycles::no_mshrs            0                       # number of cycles access was blocked
system.cpu.itb_walker_cache.blocked_cycles::no_targets            0                       # number of cycles access was blocked
system.cpu.itb_walker_cache.blocked::no_mshrs            0                       # number of cycles access was blocked
system.cpu.itb_walker_cache.blocked::no_targets            0                       # number of cycles access was blocked
system.cpu.itb_walker_cache.avg_blocked_cycles::no_mshrs          nan                       # average number of cycles each access was blocked
system.cpu.itb_walker_cache.avg_blocked_cycles::no_targets          nan                       # average number of cycles each access was blocked
system.cpu.itb_walker_cache.replacements            0                       # number of replacements
system.cpu.itb_walker_cache.tags.pwrStateResidencyTicks::UNDEFINED 92915335592500                       # Cumulative time (in ticks) in various power states
system.cpu.itb_walker_cache.tags.tagsinuse            0                       # Cycle average of tags in use
system.cpu.itb_walker_cache.tags.total_refs            0                       # Total number of references to valid blocks.
system.cpu.itb_walker_cache.tags.sampled_refs            0                       # Sample count of references to valid blocks.
system.cpu.itb_walker_cache.tags.avg_refs          nan                       # Average number of references to valid blocks.
system.cpu.itb_walker_cache.tags.warmup_cycle            0                       # Cycle when the warmup percentage was hit.
system.cpu.itb_walker_cache.tags.tag_accesses            0                       # Number of tag accesses
system.cpu.itb_walker_cache.tags.data_accesses            0                       # Number of data accesses
system.cpu.itb.walker.pwrStateResidencyTicks::UNDEFINED 92915335592500                       # Cumulative time (in ticks) in various power states
system.cpu.dtb_walker_cache.pwrStateResidencyTicks::UNDEFINED 92915335592500                       # Cumulative time (in ticks) in various power states
system.cpu.dtb_walker_cache.blocked_cycles::no_mshrs            0                       # number of cycles access was blocked
system.cpu.dtb_walker_cache.blocked_cycles::no_targets            0                       # number of cycles access was blocked
system.cpu.dtb_walker_cache.blocked::no_mshrs            0                       # number of cycles access was blocked
system.cpu.dtb_walker_cache.blocked::no_targets            0                       # number of cycles access was blocked
system.cpu.dtb_walker_cache.avg_blocked_cycles::no_mshrs          nan                       # average number of cycles each access was blocked
system.cpu.dtb_walker_cache.avg_blocked_cycles::no_targets          nan                       # average number of cycles each access was blocked
system.cpu.dtb_walker_cache.replacements            0                       # number of replacements
system.cpu.dtb_walker_cache.tags.pwrStateResidencyTicks::UNDEFINED 92915335592500                       # Cumulative time (in ticks) in various power states
system.cpu.dtb_walker_cache.tags.tagsinuse            0                       # Cycle average of tags in use
system.cpu.dtb_walker_cache.tags.total_refs            0                       # Total number of references to valid blocks.
system.cpu.dtb_walker_cache.tags.sampled_refs            0                       # Sample count of references to valid blocks.
system.cpu.dtb_walker_cache.tags.avg_refs          nan                       # Average number of references to valid blocks.
system.cpu.dtb_walker_cache.tags.warmup_cycle            0                       # Cycle when the warmup percentage was hit.
system.cpu.dtb_walker_cache.tags.tag_accesses            0                       # Number of tag accesses
system.cpu.dtb_walker_cache.tags.data_accesses            0                       # Number of data accesses
system.cpu.dcache.pwrStateResidencyTicks::UNDEFINED 92915335592500                       # Cumulative time (in ticks) in various power states
system.cpu.dcache.demand_hits::.cpu.data            1                       # number of demand (read+write) hits
system.cpu.dcache.demand_hits::.switch_cpus.data     13589953                       # number of demand (read+write) hits
system.cpu.dcache.demand_hits::total         13589954                       # number of demand (read+write) hits
system.cpu.dcache.overall_hits::.cpu.data            1                       # number of overall hits
system.cpu.dcache.overall_hits::.switch_cpus.data     13589953                       # number of overall hits
system.cpu.dcache.overall_hits::total        13589954                       # number of overall hits
system.cpu.dcache.demand_misses::.cpu.data            3                       # number of demand (read+write) misses
system.cpu.dcache.demand_misses::.switch_cpus.data      8937715                       # number of demand (read+write) misses
system.cpu.dcache.demand_misses::total        8937718                       # number of demand (read+write) misses
system.cpu.dcache.overall_misses::.cpu.data            3                       # number of overall misses
system.cpu.dcache.overall_misses::.switch_cpus.data      8937715                       # number of overall misses
system.cpu.dcache.overall_misses::total       8937718                       # number of overall misses
system.cpu.dcache.demand_miss_latency::.switch_cpus.data 337509537852                       # number of demand (read+write) miss cycles
system.cpu.dcache.demand_miss_latency::total 337509537852                       # number of demand (read+write) miss cycles
system.cpu.dcache.overall_miss_latency::.switch_cpus.data 337509537852                       # number of overall miss cycles
system.cpu.dcache.overall_miss_latency::total 337509537852                       # number of overall miss cycles
system.cpu.dcache.demand_accesses::.cpu.data            4                       # number of demand (read+write) accesses
system.cpu.dcache.demand_accesses::.switch_cpus.data     22527668                       # number of demand (read+write) accesses
system.cpu.dcache.demand_accesses::total     22527672                       # number of demand (read+write) accesses
system.cpu.dcache.overall_accesses::.cpu.data            4                       # number of overall (read+write) accesses
system.cpu.dcache.overall_accesses::.switch_cpus.data     22527668                       # number of overall (read+write) accesses
system.cpu.dcache.overall_accesses::total     22527672                       # number of overall (read+write) accesses
system.cpu.dcache.demand_miss_rate::.cpu.data     0.750000                       # miss rate for demand accesses
system.cpu.dcache.demand_miss_rate::.switch_cpus.data     0.396744                       # miss rate for demand accesses
system.cpu.dcache.demand_miss_rate::total     0.396744                       # miss rate for demand accesses
system.cpu.dcache.overall_miss_rate::.cpu.data     0.750000                       # miss rate for overall accesses
system.cpu.dcache.overall_miss_rate::.switch_cpus.data     0.396744                       # miss rate for overall accesses
system.cpu.dcache.overall_miss_rate::total     0.396744                       # miss rate for overall accesses
system.cpu.dcache.demand_avg_miss_latency::.switch_cpus.data 37762.396524                       # average overall miss latency
system.cpu.dcache.demand_avg_miss_latency::total 37762.383849                       # average overall miss latency
system.cpu.dcache.overall_avg_miss_latency::.switch_cpus.data 37762.396524                       # average overall miss latency
system.cpu.dcache.overall_avg_miss_latency::total 37762.383849                       # average overall miss latency
system.cpu.dcache.blocked_cycles::no_mshrs     33200548                       # number of cycles access was blocked
system.cpu.dcache.blocked_cycles::no_targets            0                       # number of cycles access was blocked
system.cpu.dcache.blocked::no_mshrs           1555394                       # number of cycles access was blocked
system.cpu.dcache.blocked::no_targets               0                       # number of cycles access was blocked
system.cpu.dcache.avg_blocked_cycles::no_mshrs    21.345426                       # average number of cycles each access was blocked
system.cpu.dcache.avg_blocked_cycles::no_targets          nan                       # average number of cycles each access was blocked
system.cpu.dcache.writebacks::.writebacks       578607                       # number of writebacks
system.cpu.dcache.writebacks::total            578607                       # number of writebacks
system.cpu.dcache.demand_mshr_hits::.switch_cpus.data      1138617                       # number of demand (read+write) MSHR hits
system.cpu.dcache.demand_mshr_hits::total      1138617                       # number of demand (read+write) MSHR hits
system.cpu.dcache.overall_mshr_hits::.switch_cpus.data      1138617                       # number of overall MSHR hits
system.cpu.dcache.overall_mshr_hits::total      1138617                       # number of overall MSHR hits
system.cpu.dcache.demand_mshr_misses::.switch_cpus.data      7799098                       # number of demand (read+write) MSHR misses
system.cpu.dcache.demand_mshr_misses::total      7799098                       # number of demand (read+write) MSHR misses
system.cpu.dcache.overall_mshr_misses::.switch_cpus.data      7799098                       # number of overall MSHR misses
system.cpu.dcache.overall_mshr_misses::total      7799098                       # number of overall MSHR misses
system.cpu.dcache.demand_mshr_miss_latency::.switch_cpus.data 282058725852                       # number of demand (read+write) MSHR miss cycles
system.cpu.dcache.demand_mshr_miss_latency::total 282058725852                       # number of demand (read+write) MSHR miss cycles
system.cpu.dcache.overall_mshr_miss_latency::.switch_cpus.data 282058725852                       # number of overall MSHR miss cycles
system.cpu.dcache.overall_mshr_miss_latency::total 282058725852                       # number of overall MSHR miss cycles
system.cpu.dcache.demand_mshr_miss_rate::.switch_cpus.data     0.346201                       # mshr miss rate for demand accesses
system.cpu.dcache.demand_mshr_miss_rate::total     0.346201                       # mshr miss rate for demand accesses
system.cpu.dcache.overall_mshr_miss_rate::.switch_cpus.data     0.346201                       # mshr miss rate for overall accesses
system.cpu.dcache.overall_mshr_miss_rate::total     0.346201                       # mshr miss rate for overall accesses
system.cpu.dcache.demand_avg_mshr_miss_latency::.switch_cpus.data 36165.557331                       # average overall mshr miss latency
system.cpu.dcache.demand_avg_mshr_miss_latency::total 36165.557331                       # average overall mshr miss latency
system.cpu.dcache.overall_avg_mshr_miss_latency::.switch_cpus.data 36165.557331                       # average overall mshr miss latency
system.cpu.dcache.overall_avg_mshr_miss_latency::total 36165.557331                       # average overall mshr miss latency
system.cpu.dcache.replacements                7798074                       # number of replacements
system.cpu.dcache.ReadReq_hits::.cpu.data            1                       # number of ReadReq hits
system.cpu.dcache.ReadReq_hits::.switch_cpus.data      9276988                       # number of ReadReq hits
system.cpu.dcache.ReadReq_hits::total         9276989                       # number of ReadReq hits
system.cpu.dcache.ReadReq_misses::.cpu.data            3                       # number of ReadReq misses
system.cpu.dcache.ReadReq_misses::.switch_cpus.data      8637907                       # number of ReadReq misses
system.cpu.dcache.ReadReq_misses::total       8637910                       # number of ReadReq misses
system.cpu.dcache.ReadReq_miss_latency::.switch_cpus.data 311747839000                       # number of ReadReq miss cycles
system.cpu.dcache.ReadReq_miss_latency::total 311747839000                       # number of ReadReq miss cycles
system.cpu.dcache.ReadReq_accesses::.cpu.data            4                       # number of ReadReq accesses(hits+misses)
system.cpu.dcache.ReadReq_accesses::.switch_cpus.data     17914895                       # number of ReadReq accesses(hits+misses)
system.cpu.dcache.ReadReq_accesses::total     17914899                       # number of ReadReq accesses(hits+misses)
system.cpu.dcache.ReadReq_miss_rate::.cpu.data     0.750000                       # miss rate for ReadReq accesses
system.cpu.dcache.ReadReq_miss_rate::.switch_cpus.data     0.482163                       # miss rate for ReadReq accesses
system.cpu.dcache.ReadReq_miss_rate::total     0.482163                       # miss rate for ReadReq accesses
system.cpu.dcache.ReadReq_avg_miss_latency::.switch_cpus.data 36090.668608                       # average ReadReq miss latency
system.cpu.dcache.ReadReq_avg_miss_latency::total 36090.656073                       # average ReadReq miss latency
system.cpu.dcache.ReadReq_mshr_hits::.switch_cpus.data      1138600                       # number of ReadReq MSHR hits
system.cpu.dcache.ReadReq_mshr_hits::total      1138600                       # number of ReadReq MSHR hits
system.cpu.dcache.ReadReq_mshr_misses::.switch_cpus.data      7499307                       # number of ReadReq MSHR misses
system.cpu.dcache.ReadReq_mshr_misses::total      7499307                       # number of ReadReq MSHR misses
system.cpu.dcache.ReadReq_mshr_miss_latency::.switch_cpus.data 256597177500                       # number of ReadReq MSHR miss cycles
system.cpu.dcache.ReadReq_mshr_miss_latency::total 256597177500                       # number of ReadReq MSHR miss cycles
system.cpu.dcache.ReadReq_mshr_miss_rate::.switch_cpus.data     0.418607                       # mshr miss rate for ReadReq accesses
system.cpu.dcache.ReadReq_mshr_miss_rate::total     0.418607                       # mshr miss rate for ReadReq accesses
system.cpu.dcache.ReadReq_avg_mshr_miss_latency::.switch_cpus.data 34216.118569                       # average ReadReq mshr miss latency
system.cpu.dcache.ReadReq_avg_mshr_miss_latency::total 34216.118569                       # average ReadReq mshr miss latency
system.cpu.dcache.WriteReq_hits::.switch_cpus.data      4312965                       # number of WriteReq hits
system.cpu.dcache.WriteReq_hits::total        4312965                       # number of WriteReq hits
system.cpu.dcache.WriteReq_misses::.switch_cpus.data       299808                       # number of WriteReq misses
system.cpu.dcache.WriteReq_misses::total       299808                       # number of WriteReq misses
system.cpu.dcache.WriteReq_miss_latency::.switch_cpus.data  25761698852                       # number of WriteReq miss cycles
system.cpu.dcache.WriteReq_miss_latency::total  25761698852                       # number of WriteReq miss cycles
system.cpu.dcache.WriteReq_accesses::.switch_cpus.data      4612773                       # number of WriteReq accesses(hits+misses)
system.cpu.dcache.WriteReq_accesses::total      4612773                       # number of WriteReq accesses(hits+misses)
system.cpu.dcache.WriteReq_miss_rate::.switch_cpus.data     0.064995                       # miss rate for WriteReq accesses
system.cpu.dcache.WriteReq_miss_rate::total     0.064995                       # miss rate for WriteReq accesses
system.cpu.dcache.WriteReq_avg_miss_latency::.switch_cpus.data 85927.322993                       # average WriteReq miss latency
system.cpu.dcache.WriteReq_avg_miss_latency::total 85927.322993                       # average WriteReq miss latency
system.cpu.dcache.WriteReq_mshr_hits::.switch_cpus.data           17                       # number of WriteReq MSHR hits
system.cpu.dcache.WriteReq_mshr_hits::total           17                       # number of WriteReq MSHR hits
system.cpu.dcache.WriteReq_mshr_misses::.switch_cpus.data       299791                       # number of WriteReq MSHR misses
system.cpu.dcache.WriteReq_mshr_misses::total       299791                       # number of WriteReq MSHR misses
system.cpu.dcache.WriteReq_mshr_miss_latency::.switch_cpus.data  25461548352                       # number of WriteReq MSHR miss cycles
system.cpu.dcache.WriteReq_mshr_miss_latency::total  25461548352                       # number of WriteReq MSHR miss cycles
system.cpu.dcache.WriteReq_mshr_miss_rate::.switch_cpus.data     0.064991                       # mshr miss rate for WriteReq accesses
system.cpu.dcache.WriteReq_mshr_miss_rate::total     0.064991                       # mshr miss rate for WriteReq accesses
system.cpu.dcache.WriteReq_avg_mshr_miss_latency::.switch_cpus.data 84930.996434                       # average WriteReq mshr miss latency
system.cpu.dcache.WriteReq_avg_mshr_miss_latency::total 84930.996434                       # average WriteReq mshr miss latency
system.cpu.dcache.tags.pwrStateResidencyTicks::UNDEFINED 92915335592500                       # Cumulative time (in ticks) in various power states
system.cpu.dcache.tags.tagsinuse             1.479175                       # Cycle average of tags in use
system.cpu.dcache.tags.total_refs            21389052                       # Total number of references to valid blocks.
system.cpu.dcache.tags.sampled_refs           7799098                       # Sample count of references to valid blocks.
system.cpu.dcache.tags.avg_refs              2.742503                       # Average number of references to valid blocks.
system.cpu.dcache.tags.warmup_cycle      92781095431500                       # Cycle when the warmup percentage was hit.
system.cpu.dcache.tags.occ_blocks::.cpu.data     0.000002                       # Average occupied blocks per requestor
system.cpu.dcache.tags.occ_blocks::.switch_cpus.data     1.479173                       # Average occupied blocks per requestor
system.cpu.dcache.tags.occ_percent::.cpu.data     0.000000                       # Average percentage of cache occupancy
system.cpu.dcache.tags.occ_percent::.switch_cpus.data     0.001445                       # Average percentage of cache occupancy
system.cpu.dcache.tags.occ_percent::total     0.001445                       # Average percentage of cache occupancy
system.cpu.dcache.tags.occ_task_id_blocks::1024         1024                       # Occupied blocks per task id
system.cpu.dcache.tags.age_task_id_blocks_1024::0          505                       # Occupied blocks per task id
system.cpu.dcache.tags.age_task_id_blocks_1024::1          517                       # Occupied blocks per task id
system.cpu.dcache.tags.age_task_id_blocks_1024::2            2                       # Occupied blocks per task id
system.cpu.dcache.tags.occ_task_id_percent::1024            1                       # Percentage of cache occupancy per task id
system.cpu.dcache.tags.tag_accesses          52854442                       # Number of tag accesses
system.cpu.dcache.tags.data_accesses         52854442                       # Number of data accesses

---------- End Simulation Statistics   ----------
