
---------- Begin Simulation Statistics ----------
final_tick                               270776522255000                       # Number of ticks from beginning of simulation (restored from checkpoints and never reset)
host_inst_rate                                  43520                       # Simulator instruction rate (inst/s)
host_mem_usage                                 804444                       # Number of bytes of host memory used
host_op_rate                                    72677                       # Simulator op (including micro ops) rate (op/s)
host_seconds                                   229.78                       # Real time elapsed on the host
host_tick_rate                               40222054                       # Simulator tick rate (ticks/s)
sim_freq                                 1000000000000                       # Frequency of simulated ticks
sim_insts                                    10000010                       # Number of instructions simulated
sim_ops                                      16699646                       # Number of ops (including micro ops) simulated
sim_seconds                                  0.009242                       # Number of seconds simulated
sim_ticks                                  9242201250                       # Number of ticks simulated
system.cpu.Branches                                 1                       # Number of branches fetched
system.cpu.committedInsts                           7                       # Number of instructions committed
system.cpu.committedOps                            18                       # Number of ops (including micro ops) committed
system.cpu.dtb.rdAccesses                           5                       # TLB accesses on read requests
system.cpu.dtb.rdMisses                             0                       # TLB misses on read requests
system.cpu.dtb.wrAccesses                           1                       # TLB accesses on write requests
system.cpu.dtb.wrMisses                             0                       # TLB misses on write requests
system.cpu.idle_fraction                            0                       # Percentage of idle cycles
system.cpu.itb.rdAccesses                           0                       # TLB accesses on read requests
system.cpu.itb.rdMisses                             0                       # TLB misses on read requests
system.cpu.itb.wrAccesses                           9                       # TLB accesses on write requests
system.cpu.itb.wrMisses                             0                       # TLB misses on write requests
system.cpu.not_idle_fraction                        1                       # Percentage of non-idle cycles
system.cpu.numCycles                               20                       # number of cpu cycles simulated
system.cpu.numWorkItemsCompleted                    0                       # number of work items this cpu completed
system.cpu.numWorkItemsStarted                      0                       # number of work items this cpu started
system.cpu.num_busy_cycles                         20                       # Number of busy cycles
system.cpu.num_cc_register_writes                   2                       # number of times the CC registers were written
system.cpu.num_conditional_control_insts            0                       # number of instructions that are conditional controls
system.cpu.num_fp_alu_accesses                      0                       # Number of float alu accesses
system.cpu.num_fp_insts                             0                       # number of float instructions
system.cpu.num_fp_register_reads                    0                       # number of times the floating registers were read
system.cpu.num_fp_register_writes                   0                       # number of times the floating registers were written
system.cpu.num_func_calls                           1                       # number of times a function call or return occured
system.cpu.num_idle_cycles                          0                       # Number of idle cycles
system.cpu.num_int_alu_accesses                    18                       # Number of integer alu accesses
system.cpu.num_int_insts                           18                       # number of integer instructions
system.cpu.num_int_register_reads                  40                       # number of times the integer registers were read
system.cpu.num_int_register_writes                 16                       # number of times the integer registers were written
system.cpu.num_load_insts                           5                       # Number of load instructions
system.cpu.num_mem_refs                             6                       # number of memory refs
system.cpu.num_store_insts                          1                       # Number of store instructions
system.cpu.num_vec_alu_accesses                     0                       # Number of vector alu accesses
system.cpu.num_vec_insts                            0                       # number of vector instructions
system.cpu.num_vec_register_reads                   0                       # number of times the vector registers were read
system.cpu.num_vec_register_writes                  0                       # number of times the vector registers were written
system.cpu.op_class::No_OpClass                     0      0.00%      0.00% # Class of executed instruction
system.cpu.op_class::IntAlu                        12     66.67%     66.67% # Class of executed instruction
system.cpu.op_class::IntMult                        0      0.00%     66.67% # Class of executed instruction
system.cpu.op_class::IntDiv                         0      0.00%     66.67% # Class of executed instruction
system.cpu.op_class::FloatAdd                       0      0.00%     66.67% # Class of executed instruction
system.cpu.op_class::FloatCmp                       0      0.00%     66.67% # Class of executed instruction
system.cpu.op_class::FloatCvt                       0      0.00%     66.67% # Class of executed instruction
system.cpu.op_class::FloatMult                      0      0.00%     66.67% # Class of executed instruction
system.cpu.op_class::FloatMultAcc                   0      0.00%     66.67% # Class of executed instruction
system.cpu.op_class::FloatDiv                       0      0.00%     66.67% # Class of executed instruction
system.cpu.op_class::FloatMisc                      0      0.00%     66.67% # Class of executed instruction
system.cpu.op_class::FloatSqrt                      0      0.00%     66.67% # Class of executed instruction
system.cpu.op_class::SimdAdd                        0      0.00%     66.67% # Class of executed instruction
system.cpu.op_class::SimdAddAcc                     0      0.00%     66.67% # Class of executed instruction
system.cpu.op_class::SimdAlu                        0      0.00%     66.67% # Class of executed instruction
system.cpu.op_class::SimdCmp                        0      0.00%     66.67% # Class of executed instruction
system.cpu.op_class::SimdCvt                        0      0.00%     66.67% # Class of executed instruction
system.cpu.op_class::SimdMisc                       0      0.00%     66.67% # Class of executed instruction
system.cpu.op_class::SimdMult                       0      0.00%     66.67% # Class of executed instruction
system.cpu.op_class::SimdMultAcc                    0      0.00%     66.67% # Class of executed instruction
system.cpu.op_class::SimdShift                      0      0.00%     66.67% # Class of executed instruction
system.cpu.op_class::SimdShiftAcc                   0      0.00%     66.67% # Class of executed instruction
system.cpu.op_class::SimdDiv                        0      0.00%     66.67% # Class of executed instruction
system.cpu.op_class::SimdSqrt                       0      0.00%     66.67% # Class of executed instruction
system.cpu.op_class::SimdFloatAdd                   0      0.00%     66.67% # Class of executed instruction
system.cpu.op_class::SimdFloatAlu                   0      0.00%     66.67% # Class of executed instruction
system.cpu.op_class::SimdFloatCmp                   0      0.00%     66.67% # Class of executed instruction
system.cpu.op_class::SimdFloatCvt                   0      0.00%     66.67% # Class of executed instruction
system.cpu.op_class::SimdFloatDiv                   0      0.00%     66.67% # Class of executed instruction
system.cpu.op_class::SimdFloatMisc                  0      0.00%     66.67% # Class of executed instruction
system.cpu.op_class::SimdFloatMult                  0      0.00%     66.67% # Class of executed instruction
system.cpu.op_class::SimdFloatMultAcc               0      0.00%     66.67% # Class of executed instruction
system.cpu.op_class::SimdFloatSqrt                  0      0.00%     66.67% # Class of executed instruction
system.cpu.op_class::SimdReduceAdd                  0      0.00%     66.67% # Class of executed instruction
system.cpu.op_class::SimdReduceAlu                  0      0.00%     66.67% # Class of executed instruction
system.cpu.op_class::SimdReduceCmp                  0      0.00%     66.67% # Class of executed instruction
system.cpu.op_class::SimdFloatReduceAdd             0      0.00%     66.67% # Class of executed instruction
system.cpu.op_class::SimdFloatReduceCmp             0      0.00%     66.67% # Class of executed instruction
system.cpu.op_class::SimdAes                        0      0.00%     66.67% # Class of executed instruction
system.cpu.op_class::SimdAesMix                     0      0.00%     66.67% # Class of executed instruction
system.cpu.op_class::SimdSha1Hash                   0      0.00%     66.67% # Class of executed instruction
system.cpu.op_class::SimdSha1Hash2                  0      0.00%     66.67% # Class of executed instruction
system.cpu.op_class::SimdSha256Hash                 0      0.00%     66.67% # Class of executed instruction
system.cpu.op_class::SimdSha256Hash2                0      0.00%     66.67% # Class of executed instruction
system.cpu.op_class::SimdShaSigma2                  0      0.00%     66.67% # Class of executed instruction
system.cpu.op_class::SimdShaSigma3                  0      0.00%     66.67% # Class of executed instruction
system.cpu.op_class::SimdPredAlu                    0      0.00%     66.67% # Class of executed instruction
system.cpu.op_class::MemRead                        5     27.78%     94.44% # Class of executed instruction
system.cpu.op_class::MemWrite                       1      5.56%    100.00% # Class of executed instruction
system.cpu.op_class::FloatMemRead                   0      0.00%    100.00% # Class of executed instruction
system.cpu.op_class::FloatMemWrite                  0      0.00%    100.00% # Class of executed instruction
system.cpu.op_class::IprAccess                      0      0.00%    100.00% # Class of executed instruction
system.cpu.op_class::InstPrefetch                   0      0.00%    100.00% # Class of executed instruction
system.cpu.op_class::total                         18                       # Class of executed instruction
system.cpu.workload.numSyscalls                     0                       # Number of system calls
system.membus.snoop_filter.hit_multi_requests            0                       # Number of requests hitting in the snoop filter with multiple (>1) holders of the requested data.
system.membus.snoop_filter.hit_multi_snoops            0                       # Number of snoops hitting in the snoop filter with multiple (>1) holders of the requested data.
system.membus.snoop_filter.hit_single_requests       170181                       # Number of requests hitting in the snoop filter with a single holder of the requested data.
system.membus.snoop_filter.hit_single_snoops            0                       # Number of snoops hitting in the snoop filter with a single holder of the requested data.
system.membus.snoop_filter.tot_requests        342712                       # Total number of requests made to the snoop filter.
system.membus.snoop_filter.tot_snoops               0                       # Total number of snoops made to the snoop filter.
system.switch_cpus.branchPred.BTBCorrect            0                       # Number of correct BTB predictions (this stat may not work properly.
system.switch_cpus.branchPred.BTBHitPct      0.000000                       # BTB Hit Percentage
system.switch_cpus.branchPred.BTBHits               0                       # Number of BTB hits
system.switch_cpus.branchPred.BTBLookups      1228660                       # Number of BTB lookups
system.switch_cpus.branchPred.RASInCorrect           32                       # Number of incorrect RAS predictions.
system.switch_cpus.branchPred.condIncorrect        60407                       # Number of conditional branches incorrect
system.switch_cpus.branchPred.condPredicted      1262524                       # Number of conditional branches predicted
system.switch_cpus.branchPred.indirectHits       946306                       # Number of indirect target hits.
system.switch_cpus.branchPred.indirectLookups      1228660                       # Number of indirect predictor lookups.
system.switch_cpus.branchPred.indirectMisses       282354                       # Number of indirect misses.
system.switch_cpus.branchPred.lookups         1333788                       # Number of BP lookups
system.switch_cpus.branchPred.usedRAS           35729                       # Number of times the RAS was used to get a target.
system.switch_cpus.branchPredindirectMispredicted        12522                       # Number of mispredicted indirect branches.
system.switch_cpus.cc_regfile_reads           6148562                       # number of cc regfile reads
system.switch_cpus.cc_regfile_writes          4090700                       # number of cc regfile writes
system.switch_cpus.commit.amos                      0                       # Number of atomic instructions committed
system.switch_cpus.commit.branchMispredicts        60472                       # The number of times a branch was mispredicted
system.switch_cpus.commit.branches            1012410                       # Number of branches committed
system.switch_cpus.commit.bw_lim_events       1373514                       # number cycles where commit BW limit reached
system.switch_cpus.commit.commitSquashedInsts      2217348                       # The number of squashed insts skipped by commit
system.switch_cpus.commit.committedInsts     10000003                       # Number of instructions committed
system.switch_cpus.commit.committedOps       16699628                       # Number of ops (including micro ops) committed
system.switch_cpus.commit.committed_per_cycle::samples     18141411                       # Number of insts commited each cycle
system.switch_cpus.commit.committed_per_cycle::mean     0.920525                       # Number of insts commited each cycle
system.switch_cpus.commit.committed_per_cycle::stdev     2.283333                       # Number of insts commited each cycle
system.switch_cpus.commit.committed_per_cycle::underflows            0      0.00%      0.00% # Number of insts commited each cycle
system.switch_cpus.commit.committed_per_cycle::0     14653091     80.77%     80.77% # Number of insts commited each cycle
system.switch_cpus.commit.committed_per_cycle::1       950258      5.24%     86.01% # Number of insts commited each cycle
system.switch_cpus.commit.committed_per_cycle::2       122169      0.67%     86.68% # Number of insts commited each cycle
system.switch_cpus.commit.committed_per_cycle::3       189822      1.05%     87.73% # Number of insts commited each cycle
system.switch_cpus.commit.committed_per_cycle::4       480482      2.65%     90.38% # Number of insts commited each cycle
system.switch_cpus.commit.committed_per_cycle::5       255004      1.41%     91.78% # Number of insts commited each cycle
system.switch_cpus.commit.committed_per_cycle::6        68991      0.38%     92.16% # Number of insts commited each cycle
system.switch_cpus.commit.committed_per_cycle::7        48080      0.27%     92.43% # Number of insts commited each cycle
system.switch_cpus.commit.committed_per_cycle::8      1373514      7.57%    100.00% # Number of insts commited each cycle
system.switch_cpus.commit.committed_per_cycle::overflows            0      0.00%    100.00% # Number of insts commited each cycle
system.switch_cpus.commit.committed_per_cycle::min_value            0                       # Number of insts commited each cycle
system.switch_cpus.commit.committed_per_cycle::max_value            8                       # Number of insts commited each cycle
system.switch_cpus.commit.committed_per_cycle::total     18141411                       # Number of insts commited each cycle
system.switch_cpus.commit.fp_insts            9250008                       # Number of committed floating point instructions.
system.switch_cpus.commit.function_calls        18108                       # Number of function calls committed.
system.switch_cpus.commit.int_insts           9386149                       # Number of committed integer instructions.
system.switch_cpus.commit.loads               2651089                       # Number of loads committed
system.switch_cpus.commit.membars                   0                       # Number of memory barriers committed
system.switch_cpus.commit.op_class_0::No_OpClass        28068      0.17%      0.17% # Class of committed instruction
system.switch_cpus.commit.op_class_0::IntAlu      7077496     42.38%     42.55% # Class of committed instruction
system.switch_cpus.commit.op_class_0::IntMult           15      0.00%     42.55% # Class of committed instruction
system.switch_cpus.commit.op_class_0::IntDiv           77      0.00%     42.55% # Class of committed instruction
system.switch_cpus.commit.op_class_0::FloatAdd       834706      5.00%     47.55% # Class of committed instruction
system.switch_cpus.commit.op_class_0::FloatCmp            0      0.00%     47.55% # Class of committed instruction
system.switch_cpus.commit.op_class_0::FloatCvt            0      0.00%     47.55% # Class of committed instruction
system.switch_cpus.commit.op_class_0::FloatMult            0      0.00%     47.55% # Class of committed instruction
system.switch_cpus.commit.op_class_0::FloatMultAcc            0      0.00%     47.55% # Class of committed instruction
system.switch_cpus.commit.op_class_0::FloatDiv            0      0.00%     47.55% # Class of committed instruction
system.switch_cpus.commit.op_class_0::FloatMisc            0      0.00%     47.55% # Class of committed instruction
system.switch_cpus.commit.op_class_0::FloatSqrt            0      0.00%     47.55% # Class of committed instruction
system.switch_cpus.commit.op_class_0::SimdAdd            0      0.00%     47.55% # Class of committed instruction
system.switch_cpus.commit.op_class_0::SimdAddAcc            0      0.00%     47.55% # Class of committed instruction
system.switch_cpus.commit.op_class_0::SimdAlu      1472440      8.82%     56.37% # Class of committed instruction
system.switch_cpus.commit.op_class_0::SimdCmp            0      0.00%     56.37% # Class of committed instruction
system.switch_cpus.commit.op_class_0::SimdCvt            6      0.00%     56.37% # Class of committed instruction
system.switch_cpus.commit.op_class_0::SimdMisc        40222      0.24%     56.61% # Class of committed instruction
system.switch_cpus.commit.op_class_0::SimdMult            0      0.00%     56.61% # Class of committed instruction
system.switch_cpus.commit.op_class_0::SimdMultAcc            0      0.00%     56.61% # Class of committed instruction
system.switch_cpus.commit.op_class_0::SimdShift            0      0.00%     56.61% # Class of committed instruction
system.switch_cpus.commit.op_class_0::SimdShiftAcc            0      0.00%     56.61% # Class of committed instruction
system.switch_cpus.commit.op_class_0::SimdDiv            0      0.00%     56.61% # Class of committed instruction
system.switch_cpus.commit.op_class_0::SimdSqrt            0      0.00%     56.61% # Class of committed instruction
system.switch_cpus.commit.op_class_0::SimdFloatAdd      1392117      8.34%     64.94% # Class of committed instruction
system.switch_cpus.commit.op_class_0::SimdFloatAlu            0      0.00%     64.94% # Class of committed instruction
system.switch_cpus.commit.op_class_0::SimdFloatCmp        20118      0.12%     65.06% # Class of committed instruction
system.switch_cpus.commit.op_class_0::SimdFloatCvt      1492478      8.94%     74.00% # Class of committed instruction
system.switch_cpus.commit.op_class_0::SimdFloatDiv            0      0.00%     74.00% # Class of committed instruction
system.switch_cpus.commit.op_class_0::SimdFloatMisc            0      0.00%     74.00% # Class of committed instruction
system.switch_cpus.commit.op_class_0::SimdFloatMult      1432276      8.58%     82.58% # Class of committed instruction
system.switch_cpus.commit.op_class_0::SimdFloatMultAcc            0      0.00%     82.58% # Class of committed instruction
system.switch_cpus.commit.op_class_0::SimdFloatSqrt            0      0.00%     82.58% # Class of committed instruction
system.switch_cpus.commit.op_class_0::SimdReduceAdd            0      0.00%     82.58% # Class of committed instruction
system.switch_cpus.commit.op_class_0::SimdReduceAlu            0      0.00%     82.58% # Class of committed instruction
system.switch_cpus.commit.op_class_0::SimdReduceCmp            0      0.00%     82.58% # Class of committed instruction
system.switch_cpus.commit.op_class_0::SimdFloatReduceAdd            0      0.00%     82.58% # Class of committed instruction
system.switch_cpus.commit.op_class_0::SimdFloatReduceCmp            0      0.00%     82.58% # Class of committed instruction
system.switch_cpus.commit.op_class_0::SimdAes            0      0.00%     82.58% # Class of committed instruction
system.switch_cpus.commit.op_class_0::SimdAesMix            0      0.00%     82.58% # Class of committed instruction
system.switch_cpus.commit.op_class_0::SimdSha1Hash            0      0.00%     82.58% # Class of committed instruction
system.switch_cpus.commit.op_class_0::SimdSha1Hash2            0      0.00%     82.58% # Class of committed instruction
system.switch_cpus.commit.op_class_0::SimdSha256Hash            0      0.00%     82.58% # Class of committed instruction
system.switch_cpus.commit.op_class_0::SimdSha256Hash2            0      0.00%     82.58% # Class of committed instruction
system.switch_cpus.commit.op_class_0::SimdShaSigma2            0      0.00%     82.58% # Class of committed instruction
system.switch_cpus.commit.op_class_0::SimdShaSigma3            0      0.00%     82.58% # Class of committed instruction
system.switch_cpus.commit.op_class_0::SimdPredAlu            0      0.00%     82.58% # Class of committed instruction
system.switch_cpus.commit.op_class_0::MemRead       789848      4.73%     87.31% # Class of committed instruction
system.switch_cpus.commit.op_class_0::MemWrite       194915      1.17%     88.47% # Class of committed instruction
system.switch_cpus.commit.op_class_0::FloatMemRead      1861241     11.15%     99.62% # Class of committed instruction
system.switch_cpus.commit.op_class_0::FloatMemWrite        63605      0.38%    100.00% # Class of committed instruction
system.switch_cpus.commit.op_class_0::IprAccess            0      0.00%    100.00% # Class of committed instruction
system.switch_cpus.commit.op_class_0::InstPrefetch            0      0.00%    100.00% # Class of committed instruction
system.switch_cpus.commit.op_class_0::total     16699628                       # Class of committed instruction
system.switch_cpus.commit.refs                2909609                       # Number of memory references committed
system.switch_cpus.commit.swp_count                 0                       # Number of s/w prefetches committed
system.switch_cpus.commit.vec_insts                 0                       # Number of committed Vector instructions.
system.switch_cpus.committedInsts            10000003                       # Number of Instructions Simulated
system.switch_cpus.committedOps              16699628                       # Number of Ops (including micro ops) Simulated
system.switch_cpus.cpi                       1.848438                       # CPI: Cycles Per Instruction
system.switch_cpus.cpi_total                 1.848438                       # CPI: Total CPI of All Threads
system.switch_cpus.decode.BlockedCycles      14619014                       # Number of cycles decode is blocked
system.switch_cpus.decode.DecodedInsts       19654771                       # Number of instructions handled by decode
system.switch_cpus.decode.IdleCycles          1005876                       # Number of cycles decode is idle
system.switch_cpus.decode.RunCycles           1887161                       # Number of cycles decode is running
system.switch_cpus.decode.SquashCycles          60661                       # Number of cycles decode is squashing
system.switch_cpus.decode.UnblockCycles        881846                       # Number of cycles decode is unblocking
system.switch_cpus.dtb.rdAccesses             3018169                       # TLB accesses on read requests
system.switch_cpus.dtb.rdMisses                 10938                       # TLB misses on read requests
system.switch_cpus.dtb.wrAccesses              287499                       # TLB accesses on write requests
system.switch_cpus.dtb.wrMisses                   591                       # TLB misses on write requests
system.switch_cpus.fetch.Branches             1333788                       # Number of branches that fetch encountered
system.switch_cpus.fetch.CacheLines           1497869                       # Number of cache lines fetched
system.switch_cpus.fetch.Cycles              16847877                       # Number of cycles fetch has run and was not squashing or blocked
system.switch_cpus.fetch.IcacheSquashes         12172                       # Number of outstanding Icache misses that were squashed
system.switch_cpus.fetch.Insts               12415149                       # Number of instructions fetch has processed
system.switch_cpus.fetch.MiscStallCycles           60                       # Number of cycles fetch has spent waiting on interrupts, or bad addresses, or out of MSHRs
system.switch_cpus.fetch.PendingTrapStallCycles         1791                       # Number of stall cycles due to pending traps
system.switch_cpus.fetch.SquashCycles          121322                       # Number of cycles fetch has spent squashing
system.switch_cpus.fetch.branchRate          0.072158                       # Number of branch fetches per cycle
system.switch_cpus.fetch.icacheStallCycles      1544170                       # Number of cycles fetch is stalled on an Icache miss
system.switch_cpus.fetch.predictedBranches       982035                       # Number of branches that fetch has predicted taken
system.switch_cpus.fetch.rate                0.671656                       # Number of inst fetches per cycle
system.switch_cpus.fetch.rateDist::samples     18454559                       # Number of instructions fetched each cycle (Total)
system.switch_cpus.fetch.rateDist::mean      1.127810                       # Number of instructions fetched each cycle (Total)
system.switch_cpus.fetch.rateDist::stdev     2.549156                       # Number of instructions fetched each cycle (Total)
system.switch_cpus.fetch.rateDist::underflows            0      0.00%      0.00% # Number of instructions fetched each cycle (Total)
system.switch_cpus.fetch.rateDist::0         14909647     80.79%     80.79% # Number of instructions fetched each cycle (Total)
system.switch_cpus.fetch.rateDist::1           312705      1.69%     82.49% # Number of instructions fetched each cycle (Total)
system.switch_cpus.fetch.rateDist::2           191043      1.04%     83.52% # Number of instructions fetched each cycle (Total)
system.switch_cpus.fetch.rateDist::3           216296      1.17%     84.69% # Number of instructions fetched each cycle (Total)
system.switch_cpus.fetch.rateDist::4           332204      1.80%     86.49% # Number of instructions fetched each cycle (Total)
system.switch_cpus.fetch.rateDist::5           278437      1.51%     88.00% # Number of instructions fetched each cycle (Total)
system.switch_cpus.fetch.rateDist::6           431700      2.34%     90.34% # Number of instructions fetched each cycle (Total)
system.switch_cpus.fetch.rateDist::7           101865      0.55%     90.89% # Number of instructions fetched each cycle (Total)
system.switch_cpus.fetch.rateDist::8          1680662      9.11%    100.00% # Number of instructions fetched each cycle (Total)
system.switch_cpus.fetch.rateDist::overflows            0      0.00%    100.00% # Number of instructions fetched each cycle (Total)
system.switch_cpus.fetch.rateDist::min_value            0                       # Number of instructions fetched each cycle (Total)
system.switch_cpus.fetch.rateDist::max_value            8                       # Number of instructions fetched each cycle (Total)
system.switch_cpus.fetch.rateDist::total     18454559                       # Number of instructions fetched each cycle (Total)
system.switch_cpus.fp_regfile_reads          16016519                       # number of floating regfile reads
system.switch_cpus.fp_regfile_writes          9299243                       # number of floating regfile writes
system.switch_cpus.idleCycles                   29823                       # Total number of cycles that the CPU has spent unscheduled due to idling
system.switch_cpus.iew.branchMispredicts        67660                       # Number of branch mispredicts detected at execute
system.switch_cpus.iew.exec_branches          1089077                       # Number of branches executed
system.switch_cpus.iew.exec_nop                     0                       # number of nop insts executed
system.switch_cpus.iew.exec_rate             0.982143                       # Inst execution rate
system.switch_cpus.iew.exec_refs              3347805                       # number of memory reference insts executed
system.switch_cpus.iew.exec_stores             287489                       # Number of stores executed
system.switch_cpus.iew.exec_swp                     0                       # number of swp insts executed
system.switch_cpus.iew.iewBlockCycles         7627012                       # Number of cycles IEW is blocking
system.switch_cpus.iew.iewDispLoadInsts       3071071                       # Number of dispatched load instructions
system.switch_cpus.iew.iewDispNonSpecInsts            1                       # Number of dispatched non-speculative instructions
system.switch_cpus.iew.iewDispSquashedInsts         5050                       # Number of squashed instructions skipped by dispatch
system.switch_cpus.iew.iewDispStoreInsts       323771                       # Number of dispatched store instructions
system.switch_cpus.iew.iewDispatchedInsts     18914854                       # Number of instructions dispatched to IQ
system.switch_cpus.iew.iewExecLoadInsts       3060316                       # Number of load instructions executed
system.switch_cpus.iew.iewExecSquashedInsts       109832                       # Number of squashed instructions skipped in execute
system.switch_cpus.iew.iewExecutedInsts      18154315                       # Number of executed instructions
system.switch_cpus.iew.iewIQFullEvents          81429                       # Number of times the IQ has become full, causing a stall
system.switch_cpus.iew.iewIdleCycles                0                       # Number of cycles IEW is idle
system.switch_cpus.iew.iewLSQFullEvents        750013                       # Number of times the LSQ has become full, causing a stall
system.switch_cpus.iew.iewSquashCycles          60661                       # Number of cycles IEW is squashing
system.switch_cpus.iew.iewUnblockCycles        881744                       # Number of cycles IEW is unblocking
system.switch_cpus.iew.lsq.thread0.blockedLoads            0                       # Number of blocked loads due to partial load-store forwarding
system.switch_cpus.iew.lsq.thread0.cacheBlocked        22855                       # Number of times an access to memory failed due to the cache being blocked
system.switch_cpus.iew.lsq.thread0.forwLoads        38538                       # Number of loads that had data forwarded from stores
system.switch_cpus.iew.lsq.thread0.ignoredResponses          227                       # Number of memory responses ignored because the instruction is squashed
system.switch_cpus.iew.lsq.thread0.invAddrLoads            0                       # Number of loads ignored due to an invalid address
system.switch_cpus.iew.lsq.thread0.invAddrSwpfs            0                       # Number of software prefetches ignored due to an invalid address
system.switch_cpus.iew.lsq.thread0.memOrderViolation          210                       # Number of memory ordering violations
system.switch_cpus.iew.lsq.thread0.rescheduledLoads           33                       # Number of loads that were rescheduled
system.switch_cpus.iew.lsq.thread0.squashedLoads       419960                       # Number of loads squashed
system.switch_cpus.iew.lsq.thread0.squashedStores        65249                       # Number of stores squashed
system.switch_cpus.iew.memOrderViolationEvents          210                       # Number of memory order violations
system.switch_cpus.iew.predictedNotTakenIncorrect        19785                       # Number of branches that were predicted not taken incorrectly
system.switch_cpus.iew.predictedTakenIncorrect        47875                       # Number of branches that were predicted taken incorrectly
system.switch_cpus.iew.wb_consumers          23656261                       # num instructions consuming a value
system.switch_cpus.iew.wb_count              17914403                       # cumulative count of insts written-back
system.switch_cpus.iew.wb_fanout             0.589676                       # average fanout of values written-back
system.switch_cpus.iew.wb_producers          13949522                       # num instructions producing a value
system.switch_cpus.iew.wb_rate               0.969164                       # insts written-back per cycle
system.switch_cpus.iew.wb_sent               17940216                       # cumulative count of insts sent to commit
system.switch_cpus.int_regfile_reads         15439735                       # number of integer regfile reads
system.switch_cpus.int_regfile_writes         7207928                       # number of integer regfile writes
system.switch_cpus.ipc                       0.540997                       # IPC: Instructions Per Cycle
system.switch_cpus.ipc_total                 0.540997                       # IPC: Total IPC of All Threads
system.switch_cpus.iq.FU_type_0::No_OpClass        35286      0.19%      0.19% # Type of FU issued
system.switch_cpus.iq.FU_type_0::IntAlu       8010373     43.86%     44.05% # Type of FU issued
system.switch_cpus.iq.FU_type_0::IntMult           30      0.00%     44.05% # Type of FU issued
system.switch_cpus.iq.FU_type_0::IntDiv            80      0.00%     44.05% # Type of FU issued
system.switch_cpus.iq.FU_type_0::FloatAdd       898095      4.92%     48.97% # Type of FU issued
system.switch_cpus.iq.FU_type_0::FloatCmp            0      0.00%     48.97% # Type of FU issued
system.switch_cpus.iq.FU_type_0::FloatCvt            0      0.00%     48.97% # Type of FU issued
system.switch_cpus.iq.FU_type_0::FloatMult            0      0.00%     48.97% # Type of FU issued
system.switch_cpus.iq.FU_type_0::FloatMultAcc            0      0.00%     48.97% # Type of FU issued
system.switch_cpus.iq.FU_type_0::FloatDiv            0      0.00%     48.97% # Type of FU issued
system.switch_cpus.iq.FU_type_0::FloatMisc            0      0.00%     48.97% # Type of FU issued
system.switch_cpus.iq.FU_type_0::FloatSqrt            0      0.00%     48.97% # Type of FU issued
system.switch_cpus.iq.FU_type_0::SimdAdd            0      0.00%     48.97% # Type of FU issued
system.switch_cpus.iq.FU_type_0::SimdAddAcc            0      0.00%     48.97% # Type of FU issued
system.switch_cpus.iq.FU_type_0::SimdAlu      1536237      8.41%     57.38% # Type of FU issued
system.switch_cpus.iq.FU_type_0::SimdCmp            0      0.00%     57.38% # Type of FU issued
system.switch_cpus.iq.FU_type_0::SimdCvt           14      0.00%     57.38% # Type of FU issued
system.switch_cpus.iq.FU_type_0::SimdMisc        41292      0.23%     57.61% # Type of FU issued
system.switch_cpus.iq.FU_type_0::SimdMult            0      0.00%     57.61% # Type of FU issued
system.switch_cpus.iq.FU_type_0::SimdMultAcc            0      0.00%     57.61% # Type of FU issued
system.switch_cpus.iq.FU_type_0::SimdShift            0      0.00%     57.61% # Type of FU issued
system.switch_cpus.iq.FU_type_0::SimdShiftAcc            0      0.00%     57.61% # Type of FU issued
system.switch_cpus.iq.FU_type_0::SimdDiv            0      0.00%     57.61% # Type of FU issued
system.switch_cpus.iq.FU_type_0::SimdSqrt            0      0.00%     57.61% # Type of FU issued
system.switch_cpus.iq.FU_type_0::SimdFloatAdd      1394757      7.64%     65.24% # Type of FU issued
system.switch_cpus.iq.FU_type_0::SimdFloatAlu            0      0.00%     65.24% # Type of FU issued
system.switch_cpus.iq.FU_type_0::SimdFloatCmp        20122      0.11%     65.35% # Type of FU issued
system.switch_cpus.iq.FU_type_0::SimdFloatCvt      1498654      8.21%     73.56% # Type of FU issued
system.switch_cpus.iq.FU_type_0::SimdFloatDiv            0      0.00%     73.56% # Type of FU issued
system.switch_cpus.iq.FU_type_0::SimdFloatMisc            0      0.00%     73.56% # Type of FU issued
system.switch_cpus.iq.FU_type_0::SimdFloatMult      1435909      7.86%     81.42% # Type of FU issued
system.switch_cpus.iq.FU_type_0::SimdFloatMultAcc            0      0.00%     81.42% # Type of FU issued
system.switch_cpus.iq.FU_type_0::SimdFloatSqrt            0      0.00%     81.42% # Type of FU issued
system.switch_cpus.iq.FU_type_0::SimdReduceAdd            0      0.00%     81.42% # Type of FU issued
system.switch_cpus.iq.FU_type_0::SimdReduceAlu            0      0.00%     81.42% # Type of FU issued
system.switch_cpus.iq.FU_type_0::SimdReduceCmp            0      0.00%     81.42% # Type of FU issued
system.switch_cpus.iq.FU_type_0::SimdFloatReduceAdd            0      0.00%     81.42% # Type of FU issued
system.switch_cpus.iq.FU_type_0::SimdFloatReduceCmp            0      0.00%     81.42% # Type of FU issued
system.switch_cpus.iq.FU_type_0::SimdAes            0      0.00%     81.42% # Type of FU issued
system.switch_cpus.iq.FU_type_0::SimdAesMix            0      0.00%     81.42% # Type of FU issued
system.switch_cpus.iq.FU_type_0::SimdSha1Hash            0      0.00%     81.42% # Type of FU issued
system.switch_cpus.iq.FU_type_0::SimdSha1Hash2            0      0.00%     81.42% # Type of FU issued
system.switch_cpus.iq.FU_type_0::SimdSha256Hash            0      0.00%     81.42% # Type of FU issued
system.switch_cpus.iq.FU_type_0::SimdSha256Hash2            0      0.00%     81.42% # Type of FU issued
system.switch_cpus.iq.FU_type_0::SimdShaSigma2            0      0.00%     81.42% # Type of FU issued
system.switch_cpus.iq.FU_type_0::SimdShaSigma3            0      0.00%     81.42% # Type of FU issued
system.switch_cpus.iq.FU_type_0::SimdPredAlu            0      0.00%     81.42% # Type of FU issued
system.switch_cpus.iq.FU_type_0::MemRead      1092009      5.98%     87.40% # Type of FU issued
system.switch_cpus.iq.FU_type_0::MemWrite       227889      1.25%     88.65% # Type of FU issued
system.switch_cpus.iq.FU_type_0::FloatMemRead      2009271     11.00%     99.65% # Type of FU issued
system.switch_cpus.iq.FU_type_0::FloatMemWrite        64135      0.35%    100.00% # Type of FU issued
system.switch_cpus.iq.FU_type_0::IprAccess            0      0.00%    100.00% # Type of FU issued
system.switch_cpus.iq.FU_type_0::InstPrefetch            0      0.00%    100.00% # Type of FU issued
system.switch_cpus.iq.FU_type_0::total       18264153                       # Type of FU issued
system.switch_cpus.iq.fp_alu_accesses         9742249                       # Number of floating point alu accesses
system.switch_cpus.iq.fp_inst_queue_reads     19303719                       # Number of floating instruction queue reads
system.switch_cpus.iq.fp_inst_queue_wakeup_accesses      9411655                       # Number of floating instruction queue wakeup accesses
system.switch_cpus.iq.fp_inst_queue_writes     10127592                       # Number of floating instruction queue writes
system.switch_cpus.iq.fu_busy_cnt              313171                       # FU busy when requested
system.switch_cpus.iq.fu_busy_rate           0.017147                       # FU busy rate (busy events/executed inst)
system.switch_cpus.iq.fu_full::No_OpClass            0      0.00%      0.00% # attempts to use FU when none available
system.switch_cpus.iq.fu_full::IntAlu          104507     33.37%     33.37% # attempts to use FU when none available
system.switch_cpus.iq.fu_full::IntMult              0      0.00%     33.37% # attempts to use FU when none available
system.switch_cpus.iq.fu_full::IntDiv               0      0.00%     33.37% # attempts to use FU when none available
system.switch_cpus.iq.fu_full::FloatAdd             0      0.00%     33.37% # attempts to use FU when none available
system.switch_cpus.iq.fu_full::FloatCmp             0      0.00%     33.37% # attempts to use FU when none available
system.switch_cpus.iq.fu_full::FloatCvt             0      0.00%     33.37% # attempts to use FU when none available
system.switch_cpus.iq.fu_full::FloatMult            0      0.00%     33.37% # attempts to use FU when none available
system.switch_cpus.iq.fu_full::FloatMultAcc            0      0.00%     33.37% # attempts to use FU when none available
system.switch_cpus.iq.fu_full::FloatDiv             0      0.00%     33.37% # attempts to use FU when none available
system.switch_cpus.iq.fu_full::FloatMisc            0      0.00%     33.37% # attempts to use FU when none available
system.switch_cpus.iq.fu_full::FloatSqrt            0      0.00%     33.37% # attempts to use FU when none available
system.switch_cpus.iq.fu_full::SimdAdd              0      0.00%     33.37% # attempts to use FU when none available
system.switch_cpus.iq.fu_full::SimdAddAcc            0      0.00%     33.37% # attempts to use FU when none available
system.switch_cpus.iq.fu_full::SimdAlu          51924     16.58%     49.95% # attempts to use FU when none available
system.switch_cpus.iq.fu_full::SimdCmp              0      0.00%     49.95% # attempts to use FU when none available
system.switch_cpus.iq.fu_full::SimdCvt              0      0.00%     49.95% # attempts to use FU when none available
system.switch_cpus.iq.fu_full::SimdMisc             0      0.00%     49.95% # attempts to use FU when none available
system.switch_cpus.iq.fu_full::SimdMult             0      0.00%     49.95% # attempts to use FU when none available
system.switch_cpus.iq.fu_full::SimdMultAcc            0      0.00%     49.95% # attempts to use FU when none available
system.switch_cpus.iq.fu_full::SimdShift            0      0.00%     49.95% # attempts to use FU when none available
system.switch_cpus.iq.fu_full::SimdShiftAcc            0      0.00%     49.95% # attempts to use FU when none available
system.switch_cpus.iq.fu_full::SimdDiv              0      0.00%     49.95% # attempts to use FU when none available
system.switch_cpus.iq.fu_full::SimdSqrt             0      0.00%     49.95% # attempts to use FU when none available
system.switch_cpus.iq.fu_full::SimdFloatAdd        71173     22.73%     72.68% # attempts to use FU when none available
system.switch_cpus.iq.fu_full::SimdFloatAlu            0      0.00%     72.68% # attempts to use FU when none available
system.switch_cpus.iq.fu_full::SimdFloatCmp            0      0.00%     72.68% # attempts to use FU when none available
system.switch_cpus.iq.fu_full::SimdFloatCvt        19429      6.20%     78.88% # attempts to use FU when none available
system.switch_cpus.iq.fu_full::SimdFloatDiv            0      0.00%     78.88% # attempts to use FU when none available
system.switch_cpus.iq.fu_full::SimdFloatMisc            0      0.00%     78.88% # attempts to use FU when none available
system.switch_cpus.iq.fu_full::SimdFloatMult         4149      1.32%     80.21% # attempts to use FU when none available
system.switch_cpus.iq.fu_full::SimdFloatMultAcc            0      0.00%     80.21% # attempts to use FU when none available
system.switch_cpus.iq.fu_full::SimdFloatSqrt            0      0.00%     80.21% # attempts to use FU when none available
system.switch_cpus.iq.fu_full::SimdReduceAdd            0      0.00%     80.21% # attempts to use FU when none available
system.switch_cpus.iq.fu_full::SimdReduceAlu            0      0.00%     80.21% # attempts to use FU when none available
system.switch_cpus.iq.fu_full::SimdReduceCmp            0      0.00%     80.21% # attempts to use FU when none available
system.switch_cpus.iq.fu_full::SimdFloatReduceAdd            0      0.00%     80.21% # attempts to use FU when none available
system.switch_cpus.iq.fu_full::SimdFloatReduceCmp            0      0.00%     80.21% # attempts to use FU when none available
system.switch_cpus.iq.fu_full::SimdAes              0      0.00%     80.21% # attempts to use FU when none available
system.switch_cpus.iq.fu_full::SimdAesMix            0      0.00%     80.21% # attempts to use FU when none available
system.switch_cpus.iq.fu_full::SimdSha1Hash            0      0.00%     80.21% # attempts to use FU when none available
system.switch_cpus.iq.fu_full::SimdSha1Hash2            0      0.00%     80.21% # attempts to use FU when none available
system.switch_cpus.iq.fu_full::SimdSha256Hash            0      0.00%     80.21% # attempts to use FU when none available
system.switch_cpus.iq.fu_full::SimdSha256Hash2            0      0.00%     80.21% # attempts to use FU when none available
system.switch_cpus.iq.fu_full::SimdShaSigma2            0      0.00%     80.21% # attempts to use FU when none available
system.switch_cpus.iq.fu_full::SimdShaSigma3            0      0.00%     80.21% # attempts to use FU when none available
system.switch_cpus.iq.fu_full::SimdPredAlu            0      0.00%     80.21% # attempts to use FU when none available
system.switch_cpus.iq.fu_full::MemRead          22656      7.23%     87.44% # attempts to use FU when none available
system.switch_cpus.iq.fu_full::MemWrite          3316      1.06%     88.50% # attempts to use FU when none available
system.switch_cpus.iq.fu_full::FloatMemRead        35958     11.48%     99.98% # attempts to use FU when none available
system.switch_cpus.iq.fu_full::FloatMemWrite           59      0.02%    100.00% # attempts to use FU when none available
system.switch_cpus.iq.fu_full::IprAccess            0      0.00%    100.00% # attempts to use FU when none available
system.switch_cpus.iq.fu_full::InstPrefetch            0      0.00%    100.00% # attempts to use FU when none available
system.switch_cpus.iq.int_alu_accesses        8799789                       # Number of integer alu accesses
system.switch_cpus.iq.int_inst_queue_reads     36031662                       # Number of integer instruction queue reads
system.switch_cpus.iq.int_inst_queue_wakeup_accesses      8502748                       # Number of integer instruction queue wakeup accesses
system.switch_cpus.iq.int_inst_queue_writes     11002561                       # Number of integer instruction queue writes
system.switch_cpus.iq.iqInstsAdded           18914851                       # Number of instructions added to the IQ (excludes non-spec)
system.switch_cpus.iq.iqInstsIssued          18264153                       # Number of instructions issued
system.switch_cpus.iq.iqNonSpecInstsAdded            3                       # Number of non-speculative instructions added to the IQ
system.switch_cpus.iq.iqSquashedInstsExamined      2215094                       # Number of squashed instructions iterated over during squash; mainly for profiling
system.switch_cpus.iq.iqSquashedInstsIssued        39351                       # Number of squashed instructions issued
system.switch_cpus.iq.iqSquashedNonSpecRemoved            3                       # Number of squashed non-spec instructions that were removed
system.switch_cpus.iq.iqSquashedOperandsExamined      3332437                       # Number of squashed operands that are examined and possibly removed from graph
system.switch_cpus.iq.issued_per_cycle::samples     18454559                       # Number of insts issued each cycle
system.switch_cpus.iq.issued_per_cycle::mean     0.989682                       # Number of insts issued each cycle
system.switch_cpus.iq.issued_per_cycle::stdev     1.862193                       # Number of insts issued each cycle
system.switch_cpus.iq.issued_per_cycle::underflows            0      0.00%      0.00% # Number of insts issued each cycle
system.switch_cpus.iq.issued_per_cycle::0     12805268     69.39%     69.39% # Number of insts issued each cycle
system.switch_cpus.iq.issued_per_cycle::1      1463167      7.93%     77.32% # Number of insts issued each cycle
system.switch_cpus.iq.issued_per_cycle::2      1072230      5.81%     83.13% # Number of insts issued each cycle
system.switch_cpus.iq.issued_per_cycle::3       877050      4.75%     87.88% # Number of insts issued each cycle
system.switch_cpus.iq.issued_per_cycle::4       772262      4.18%     92.06% # Number of insts issued each cycle
system.switch_cpus.iq.issued_per_cycle::5       522807      2.83%     94.90% # Number of insts issued each cycle
system.switch_cpus.iq.issued_per_cycle::6       452414      2.45%     97.35% # Number of insts issued each cycle
system.switch_cpus.iq.issued_per_cycle::7       307079      1.66%     99.01% # Number of insts issued each cycle
system.switch_cpus.iq.issued_per_cycle::8       182282      0.99%    100.00% # Number of insts issued each cycle
system.switch_cpus.iq.issued_per_cycle::overflows            0      0.00%    100.00% # Number of insts issued each cycle
system.switch_cpus.iq.issued_per_cycle::min_value            0                       # Number of insts issued each cycle
system.switch_cpus.iq.issued_per_cycle::max_value            8                       # Number of insts issued each cycle
system.switch_cpus.iq.issued_per_cycle::total     18454559                       # Number of insts issued each cycle
system.switch_cpus.iq.rate                   0.988086                       # Inst issue rate
system.switch_cpus.iq.vec_alu_accesses              0                       # Number of vector alu accesses
system.switch_cpus.iq.vec_inst_queue_reads            0                       # Number of vector instruction queue reads
system.switch_cpus.iq.vec_inst_queue_wakeup_accesses            0                       # Number of vector instruction queue wakeup accesses
system.switch_cpus.iq.vec_inst_queue_writes            0                       # Number of vector instruction queue writes
system.switch_cpus.itb.rdAccesses                   0                       # TLB accesses on read requests
system.switch_cpus.itb.rdMisses                     0                       # TLB misses on read requests
system.switch_cpus.itb.wrAccesses             1498126                       # TLB accesses on write requests
system.switch_cpus.itb.wrMisses                   293                       # TLB misses on write requests
system.switch_cpus.memDep0.conflictingLoads        45177                       # Number of conflicting loads.
system.switch_cpus.memDep0.conflictingStores        16835                       # Number of conflicting stores.
system.switch_cpus.memDep0.insertedLoads      3071071                       # Number of loads inserted to the mem dependence unit.
system.switch_cpus.memDep0.insertedStores       323771                       # Number of stores inserted to the mem dependence unit.
system.switch_cpus.misc_regfile_reads         5617110                       # number of misc regfile reads
system.switch_cpus.misc_regfile_writes              1                       # number of misc regfile writes
system.switch_cpus.numCycles                 18484382                       # number of cpu cycles simulated
system.switch_cpus.numWorkItemsCompleted            0                       # number of work items this cpu completed
system.switch_cpus.numWorkItemsStarted              0                       # number of work items this cpu started
system.switch_cpus.rename.BlockCycles        11746001                       # Number of cycles rename is blocking
system.switch_cpus.rename.CommittedMaps      19126939                       # Number of HB maps that are committed
system.switch_cpus.rename.IQFullEvents        1540096                       # Number of times rename has blocked due to IQ full
system.switch_cpus.rename.IdleCycles          1362946                       # Number of cycles rename is idle
system.switch_cpus.rename.LQFullEvents         446865                       # Number of times rename has blocked due to LQ full
system.switch_cpus.rename.ROBFullEvents        150946                       # Number of times rename has blocked due to ROB full
system.switch_cpus.rename.RenameLookups      47010326                       # Number of register rename lookups that rename has made
system.switch_cpus.rename.RenamedInsts       19364022                       # Number of instructions processed by rename
system.switch_cpus.rename.RenamedOperands     22322421                       # Number of destination operands rename has renamed
system.switch_cpus.rename.RunCycles           2353711                       # Number of cycles rename is running
system.switch_cpus.rename.SQFullEvents         669654                       # Number of times rename has blocked due to SQ full
system.switch_cpus.rename.SquashCycles          60661                       # Number of cycles rename is squashing
system.switch_cpus.rename.UnblockCycles       2931239                       # Number of cycles rename is unblocking
system.switch_cpus.rename.UndoneMaps          3195324                       # Number of HB maps that are undone due to squashing
system.switch_cpus.rename.fp_rename_lookups     16827255                       # Number of floating rename lookups
system.switch_cpus.rename.int_rename_lookups     17046573                       # Number of integer rename lookups
system.switch_cpus.rename.serializeStallCycles            0                       # count of cycles rename stalled for serializing inst
system.switch_cpus.rename.serializingInsts            0                       # count of serializing insts renamed
system.switch_cpus.rename.skidInsts           4606575                       # count of insts added to the skid buffer
system.switch_cpus.rename.tempSerializingInsts            0                       # count of temporary serializing insts renamed
system.switch_cpus.rob.rob_reads             35684873                       # The number of ROB reads
system.switch_cpus.rob.rob_writes            38147830                       # The number of ROB writes
system.switch_cpus.timesIdled                     342                       # Number of times that the entire CPU went into an idle state and unscheduled itself
system.tol2bus.snoop_filter.hit_multi_requests            0                       # Number of requests hitting in the snoop filter with multiple (>1) holders of the requested data.
system.tol2bus.snoop_filter.hit_multi_snoops            0                       # Number of snoops hitting in the snoop filter with multiple (>1) holders of the requested data.
system.tol2bus.snoop_filter.hit_single_requests       183367                       # Number of requests hitting in the snoop filter with a single holder of the requested data.
system.tol2bus.snoop_filter.hit_single_snoops        62776                       # Number of snoops hitting in the snoop filter with a single holder of the requested data.
system.tol2bus.snoop_filter.tot_requests       368053                       # Total number of requests made to the snoop filter.
system.tol2bus.snoop_filter.tot_snoops          62776                       # Total number of snoops made to the snoop filter.
system.membus.pwrStateResidencyTicks::UNDEFINED 270776522255000                       # Cumulative time (in ticks) in various power states
system.membus.trans_dist::ReadResp             161041                       # Transaction distribution
system.membus.trans_dist::WritebackDirty        16208                       # Transaction distribution
system.membus.trans_dist::CleanEvict           153973                       # Transaction distribution
system.membus.trans_dist::ReadExReq             11489                       # Transaction distribution
system.membus.trans_dist::ReadExResp            11489                       # Transaction distribution
system.membus.trans_dist::ReadSharedReq        161042                       # Transaction distribution
system.membus.pkt_count_system.l2.mem_side::system.mem_ctrls.port       515242                       # Packet count per connected master and slave (bytes)
system.membus.pkt_count_system.l2.mem_side::total       515242                       # Packet count per connected master and slave (bytes)
system.membus.pkt_count::total                 515242                       # Packet count per connected master and slave (bytes)
system.membus.pkt_size_system.l2.mem_side::system.mem_ctrls.port     12079232                       # Cumulative packet size per connected master and slave (bytes)
system.membus.pkt_size_system.l2.mem_side::total     12079232                       # Cumulative packet size per connected master and slave (bytes)
system.membus.pkt_size::total                12079232                       # Cumulative packet size per connected master and slave (bytes)
system.membus.snoops                                0                       # Total snoops (count)
system.membus.snoopTraffic                          0                       # Total snoop traffic (bytes)
system.membus.snoop_fanout::samples            172531                       # Request fanout histogram
system.membus.snoop_fanout::mean                    0                       # Request fanout histogram
system.membus.snoop_fanout::stdev                   0                       # Request fanout histogram
system.membus.snoop_fanout::underflows              0      0.00%      0.00% # Request fanout histogram
system.membus.snoop_fanout::0                  172531    100.00%    100.00% # Request fanout histogram
system.membus.snoop_fanout::1                       0      0.00%    100.00% # Request fanout histogram
system.membus.snoop_fanout::overflows               0      0.00%    100.00% # Request fanout histogram
system.membus.snoop_fanout::min_value               0                       # Request fanout histogram
system.membus.snoop_fanout::max_value               0                       # Request fanout histogram
system.membus.snoop_fanout::total              172531                       # Request fanout histogram
system.membus.reqLayer2.occupancy           441047000                       # Layer occupancy (ticks)
system.membus.reqLayer2.utilization               4.8                       # Layer utilization (%)
system.membus.respLayer1.occupancy          922213250                       # Layer occupancy (ticks)
system.membus.respLayer1.utilization             10.0                       # Layer utilization (%)
system.switch_cpus.pwrStateResidencyTicks::OFF   9242201250                       # Cumulative time (in ticks) in various power states
system.switch_cpus.dtb.walker.pwrStateResidencyTicks::UNDEFINED 270776522255000                       # Cumulative time (in ticks) in various power states
system.switch_cpus.itb.walker.pwrStateResidencyTicks::UNDEFINED 270776522255000                       # Cumulative time (in ticks) in various power states
system.tol2bus.pwrStateResidencyTicks::UNDEFINED 270776522255000                       # Cumulative time (in ticks) in various power states
system.tol2bus.trans_dist::ReadResp            172341                       # Transaction distribution
system.tol2bus.trans_dist::WritebackDirty        36299                       # Transaction distribution
system.tol2bus.trans_dist::WritebackClean          168                       # Transaction distribution
system.tol2bus.trans_dist::CleanEvict          327931                       # Transaction distribution
system.tol2bus.trans_dist::ReadExReq            12344                       # Transaction distribution
system.tol2bus.trans_dist::ReadExResp           12344                       # Transaction distribution
system.tol2bus.trans_dist::ReadCleanReq           462                       # Transaction distribution
system.tol2bus.trans_dist::ReadSharedReq       171880                       # Transaction distribution
system.tol2bus.pkt_count_system.cpu.icache.mem_side::system.l2.cpu_side         1092                       # Packet count per connected master and slave (bytes)
system.tol2bus.pkt_count_system.cpu.dcache.mem_side::system.l2.cpu_side       551646                       # Packet count per connected master and slave (bytes)
system.tol2bus.pkt_count::total                552738                       # Packet count per connected master and slave (bytes)
system.tol2bus.pkt_size_system.cpu.icache.mem_side::system.l2.cpu_side        40320                       # Cumulative packet size per connected master and slave (bytes)
system.tol2bus.pkt_size_system.cpu.dcache.mem_side::system.l2.cpu_side     13076096                       # Cumulative packet size per connected master and slave (bytes)
system.tol2bus.pkt_size::total               13116416                       # Cumulative packet size per connected master and slave (bytes)
system.tol2bus.snoops                          181031                       # Total snoops (count)
system.tol2bus.snoopTraffic                   1037312                       # Total snoop traffic (bytes)
system.tol2bus.snoop_fanout::samples           365717                       # Request fanout histogram
system.tol2bus.snoop_fanout::mean            0.171652                       # Request fanout histogram
system.tol2bus.snoop_fanout::stdev           0.377078                       # Request fanout histogram
system.tol2bus.snoop_fanout::underflows             0      0.00%      0.00% # Request fanout histogram
system.tol2bus.snoop_fanout::0                 302941     82.83%     82.83% # Request fanout histogram
system.tol2bus.snoop_fanout::1                  62776     17.17%    100.00% # Request fanout histogram
system.tol2bus.snoop_fanout::2                      0      0.00%    100.00% # Request fanout histogram
system.tol2bus.snoop_fanout::3                      0      0.00%    100.00% # Request fanout histogram
system.tol2bus.snoop_fanout::4                      0      0.00%    100.00% # Request fanout histogram
system.tol2bus.snoop_fanout::overflows              0      0.00%    100.00% # Request fanout histogram
system.tol2bus.snoop_fanout::min_value              0                       # Request fanout histogram
system.tol2bus.snoop_fanout::max_value              1                       # Request fanout histogram
system.tol2bus.snoop_fanout::total             365717                       # Request fanout histogram
system.tol2bus.reqLayer0.occupancy          204283000                       # Layer occupancy (ticks)
system.tol2bus.reqLayer0.utilization              2.2                       # Layer utilization (%)
system.tol2bus.respLayer1.occupancy         276330499                       # Layer occupancy (ticks)
system.tol2bus.respLayer1.utilization             3.0                       # Layer utilization (%)
system.tol2bus.respLayer0.occupancy            690000                       # Layer occupancy (ticks)
system.tol2bus.respLayer0.utilization             0.0                       # Layer utilization (%)
system.voltage_domain.voltage                       1                       # Voltage in Volts
system.clk_domain.clock                          1000                       # Clock period in ticks
system.l2.pwrStateResidencyTicks::UNDEFINED 270776522255000                       # Cumulative time (in ticks) in various power states
system.l2.demand_hits::.switch_cpus.inst           17                       # number of demand (read+write) hits
system.l2.demand_hits::.switch_cpus.data        12138                       # number of demand (read+write) hits
system.l2.demand_hits::total                    12155                       # number of demand (read+write) hits
system.l2.overall_hits::.switch_cpus.inst           17                       # number of overall hits
system.l2.overall_hits::.switch_cpus.data        12138                       # number of overall hits
system.l2.overall_hits::total                   12155                       # number of overall hits
system.l2.demand_misses::.cpu.inst                  2                       # number of demand (read+write) misses
system.l2.demand_misses::.cpu.data                  3                       # number of demand (read+write) misses
system.l2.demand_misses::.switch_cpus.inst          443                       # number of demand (read+write) misses
system.l2.demand_misses::.switch_cpus.data       172083                       # number of demand (read+write) misses
system.l2.demand_misses::total                 172531                       # number of demand (read+write) misses
system.l2.overall_misses::.cpu.inst                 2                       # number of overall misses
system.l2.overall_misses::.cpu.data                 3                       # number of overall misses
system.l2.overall_misses::.switch_cpus.inst          443                       # number of overall misses
system.l2.overall_misses::.switch_cpus.data       172083                       # number of overall misses
system.l2.overall_misses::total                172531                       # number of overall misses
system.l2.demand_miss_latency::.switch_cpus.inst     39581500                       # number of demand (read+write) miss cycles
system.l2.demand_miss_latency::.switch_cpus.data  14233768000                       # number of demand (read+write) miss cycles
system.l2.demand_miss_latency::total      14273349500                       # number of demand (read+write) miss cycles
system.l2.overall_miss_latency::.switch_cpus.inst     39581500                       # number of overall miss cycles
system.l2.overall_miss_latency::.switch_cpus.data  14233768000                       # number of overall miss cycles
system.l2.overall_miss_latency::total     14273349500                       # number of overall miss cycles
system.l2.demand_accesses::.cpu.inst                2                       # number of demand (read+write) accesses
system.l2.demand_accesses::.cpu.data                3                       # number of demand (read+write) accesses
system.l2.demand_accesses::.switch_cpus.inst          460                       # number of demand (read+write) accesses
system.l2.demand_accesses::.switch_cpus.data       184221                       # number of demand (read+write) accesses
system.l2.demand_accesses::total               184686                       # number of demand (read+write) accesses
system.l2.overall_accesses::.cpu.inst               2                       # number of overall (read+write) accesses
system.l2.overall_accesses::.cpu.data               3                       # number of overall (read+write) accesses
system.l2.overall_accesses::.switch_cpus.inst          460                       # number of overall (read+write) accesses
system.l2.overall_accesses::.switch_cpus.data       184221                       # number of overall (read+write) accesses
system.l2.overall_accesses::total              184686                       # number of overall (read+write) accesses
system.l2.demand_miss_rate::.cpu.inst               1                       # miss rate for demand accesses
system.l2.demand_miss_rate::.cpu.data               1                       # miss rate for demand accesses
system.l2.demand_miss_rate::.switch_cpus.inst     0.963043                       # miss rate for demand accesses
system.l2.demand_miss_rate::.switch_cpus.data     0.934112                       # miss rate for demand accesses
system.l2.demand_miss_rate::total            0.934186                       # miss rate for demand accesses
system.l2.overall_miss_rate::.cpu.inst              1                       # miss rate for overall accesses
system.l2.overall_miss_rate::.cpu.data              1                       # miss rate for overall accesses
system.l2.overall_miss_rate::.switch_cpus.inst     0.963043                       # miss rate for overall accesses
system.l2.overall_miss_rate::.switch_cpus.data     0.934112                       # miss rate for overall accesses
system.l2.overall_miss_rate::total           0.934186                       # miss rate for overall accesses
system.l2.demand_avg_miss_latency::.switch_cpus.inst 89348.758465                       # average overall miss latency
system.l2.demand_avg_miss_latency::.switch_cpus.data 82714.550537                       # average overall miss latency
system.l2.demand_avg_miss_latency::total 82729.187798                       # average overall miss latency
system.l2.overall_avg_miss_latency::.switch_cpus.inst 89348.758465                       # average overall miss latency
system.l2.overall_avg_miss_latency::.switch_cpus.data 82714.550537                       # average overall miss latency
system.l2.overall_avg_miss_latency::total 82729.187798                       # average overall miss latency
system.l2.blocked_cycles::no_mshrs                  0                       # number of cycles access was blocked
system.l2.blocked_cycles::no_targets                0                       # number of cycles access was blocked
system.l2.blocked::no_mshrs                         0                       # number of cycles access was blocked
system.l2.blocked::no_targets                       0                       # number of cycles access was blocked
system.l2.avg_blocked_cycles::no_mshrs            nan                       # average number of cycles each access was blocked
system.l2.avg_blocked_cycles::no_targets          nan                       # average number of cycles each access was blocked
system.l2.writebacks::.writebacks               16208                       # number of writebacks
system.l2.writebacks::total                     16208                       # number of writebacks
system.l2.demand_mshr_misses::.switch_cpus.inst          443                       # number of demand (read+write) MSHR misses
system.l2.demand_mshr_misses::.switch_cpus.data       172083                       # number of demand (read+write) MSHR misses
system.l2.demand_mshr_misses::total            172526                       # number of demand (read+write) MSHR misses
system.l2.overall_mshr_misses::.switch_cpus.inst          443                       # number of overall MSHR misses
system.l2.overall_mshr_misses::.switch_cpus.data       172083                       # number of overall MSHR misses
system.l2.overall_mshr_misses::total           172526                       # number of overall MSHR misses
system.l2.demand_mshr_miss_latency::.switch_cpus.inst     35151500                       # number of demand (read+write) MSHR miss cycles
system.l2.demand_mshr_miss_latency::.switch_cpus.data  12512948000                       # number of demand (read+write) MSHR miss cycles
system.l2.demand_mshr_miss_latency::total  12548099500                       # number of demand (read+write) MSHR miss cycles
system.l2.overall_mshr_miss_latency::.switch_cpus.inst     35151500                       # number of overall MSHR miss cycles
system.l2.overall_mshr_miss_latency::.switch_cpus.data  12512948000                       # number of overall MSHR miss cycles
system.l2.overall_mshr_miss_latency::total  12548099500                       # number of overall MSHR miss cycles
system.l2.demand_mshr_miss_rate::.switch_cpus.inst     0.963043                       # mshr miss rate for demand accesses
system.l2.demand_mshr_miss_rate::.switch_cpus.data     0.934112                       # mshr miss rate for demand accesses
system.l2.demand_mshr_miss_rate::total       0.934159                       # mshr miss rate for demand accesses
system.l2.overall_mshr_miss_rate::.switch_cpus.inst     0.963043                       # mshr miss rate for overall accesses
system.l2.overall_mshr_miss_rate::.switch_cpus.data     0.934112                       # mshr miss rate for overall accesses
system.l2.overall_mshr_miss_rate::total      0.934159                       # mshr miss rate for overall accesses
system.l2.demand_avg_mshr_miss_latency::.switch_cpus.inst 79348.758465                       # average overall mshr miss latency
system.l2.demand_avg_mshr_miss_latency::.switch_cpus.data 72714.608648                       # average overall mshr miss latency
system.l2.demand_avg_mshr_miss_latency::total 72731.643347                       # average overall mshr miss latency
system.l2.overall_avg_mshr_miss_latency::.switch_cpus.inst 79348.758465                       # average overall mshr miss latency
system.l2.overall_avg_mshr_miss_latency::.switch_cpus.data 72714.608648                       # average overall mshr miss latency
system.l2.overall_avg_mshr_miss_latency::total 72731.643347                       # average overall mshr miss latency
system.l2.replacements                         181031                       # number of replacements
system.l2.WritebackDirty_hits::.writebacks        20091                       # number of WritebackDirty hits
system.l2.WritebackDirty_hits::total            20091                       # number of WritebackDirty hits
system.l2.WritebackDirty_accesses::.writebacks        20091                       # number of WritebackDirty accesses(hits+misses)
system.l2.WritebackDirty_accesses::total        20091                       # number of WritebackDirty accesses(hits+misses)
system.l2.WritebackClean_hits::.writebacks          168                       # number of WritebackClean hits
system.l2.WritebackClean_hits::total              168                       # number of WritebackClean hits
system.l2.WritebackClean_accesses::.writebacks          168                       # number of WritebackClean accesses(hits+misses)
system.l2.WritebackClean_accesses::total          168                       # number of WritebackClean accesses(hits+misses)
system.l2.CleanEvict_mshr_misses::.writebacks        51927                       # number of CleanEvict MSHR misses
system.l2.CleanEvict_mshr_misses::total         51927                       # number of CleanEvict MSHR misses
system.l2.CleanEvict_mshr_miss_rate::.writebacks          inf                       # mshr miss rate for CleanEvict accesses
system.l2.CleanEvict_mshr_miss_rate::total          inf                       # mshr miss rate for CleanEvict accesses
system.l2.ReadExReq_hits::.switch_cpus.data          855                       # number of ReadExReq hits
system.l2.ReadExReq_hits::total                   855                       # number of ReadExReq hits
system.l2.ReadExReq_misses::.cpu.data               1                       # number of ReadExReq misses
system.l2.ReadExReq_misses::.switch_cpus.data        11488                       # number of ReadExReq misses
system.l2.ReadExReq_misses::total               11489                       # number of ReadExReq misses
system.l2.ReadExReq_miss_latency::.switch_cpus.data    922777500                       # number of ReadExReq miss cycles
system.l2.ReadExReq_miss_latency::total     922777500                       # number of ReadExReq miss cycles
system.l2.ReadExReq_accesses::.cpu.data             1                       # number of ReadExReq accesses(hits+misses)
system.l2.ReadExReq_accesses::.switch_cpus.data        12343                       # number of ReadExReq accesses(hits+misses)
system.l2.ReadExReq_accesses::total             12344                       # number of ReadExReq accesses(hits+misses)
system.l2.ReadExReq_miss_rate::.cpu.data            1                       # miss rate for ReadExReq accesses
system.l2.ReadExReq_miss_rate::.switch_cpus.data     0.930730                       # miss rate for ReadExReq accesses
system.l2.ReadExReq_miss_rate::total         0.930736                       # miss rate for ReadExReq accesses
system.l2.ReadExReq_avg_miss_latency::.switch_cpus.data 80325.339485                       # average ReadExReq miss latency
system.l2.ReadExReq_avg_miss_latency::total 80318.347985                       # average ReadExReq miss latency
system.l2.ReadExReq_mshr_misses::.switch_cpus.data        11488                       # number of ReadExReq MSHR misses
system.l2.ReadExReq_mshr_misses::total          11488                       # number of ReadExReq MSHR misses
system.l2.ReadExReq_mshr_miss_latency::.switch_cpus.data    807897500                       # number of ReadExReq MSHR miss cycles
system.l2.ReadExReq_mshr_miss_latency::total    807897500                       # number of ReadExReq MSHR miss cycles
system.l2.ReadExReq_mshr_miss_rate::.switch_cpus.data     0.930730                       # mshr miss rate for ReadExReq accesses
system.l2.ReadExReq_mshr_miss_rate::total     0.930655                       # mshr miss rate for ReadExReq accesses
system.l2.ReadExReq_avg_mshr_miss_latency::.switch_cpus.data 70325.339485                       # average ReadExReq mshr miss latency
system.l2.ReadExReq_avg_mshr_miss_latency::total 70325.339485                       # average ReadExReq mshr miss latency
system.l2.ReadCleanReq_hits::.switch_cpus.inst           17                       # number of ReadCleanReq hits
system.l2.ReadCleanReq_hits::total                 17                       # number of ReadCleanReq hits
system.l2.ReadCleanReq_misses::.cpu.inst            2                       # number of ReadCleanReq misses
system.l2.ReadCleanReq_misses::.switch_cpus.inst          443                       # number of ReadCleanReq misses
system.l2.ReadCleanReq_misses::total              445                       # number of ReadCleanReq misses
system.l2.ReadCleanReq_miss_latency::.switch_cpus.inst     39581500                       # number of ReadCleanReq miss cycles
system.l2.ReadCleanReq_miss_latency::total     39581500                       # number of ReadCleanReq miss cycles
system.l2.ReadCleanReq_accesses::.cpu.inst            2                       # number of ReadCleanReq accesses(hits+misses)
system.l2.ReadCleanReq_accesses::.switch_cpus.inst          460                       # number of ReadCleanReq accesses(hits+misses)
system.l2.ReadCleanReq_accesses::total            462                       # number of ReadCleanReq accesses(hits+misses)
system.l2.ReadCleanReq_miss_rate::.cpu.inst            1                       # miss rate for ReadCleanReq accesses
system.l2.ReadCleanReq_miss_rate::.switch_cpus.inst     0.963043                       # miss rate for ReadCleanReq accesses
[...]
system.cpu.itb.walker.pwrStateResidencyTicks::UNDEFINED 270804508515000                       # Cumulative time (in ticks) in various power states
system.cpu.dtb_walker_cache.pwrStateResidencyTicks::UNDEFINED 270804508515000                       # Cumulative time (in ticks) in various power states
system.cpu.dtb_walker_cache.blocked_cycles::no_mshrs            0                       # number of cycles access was blocked
system.cpu.dtb_walker_cache.blocked_cycles::no_targets            0                       # number of cycles access was blocked
system.cpu.dtb_walker_cache.blocked::no_mshrs            0                       # number of cycles access was blocked
system.cpu.dtb_walker_cache.blocked::no_targets            0                       # number of cycles access was blocked
system.cpu.dtb_walker_cache.avg_blocked_cycles::no_mshrs          nan                       # average number of cycles each access was blocked
system.cpu.dtb_walker_cache.avg_blocked_cycles::no_targets          nan                       # average number of cycles each access was blocked
system.cpu.dtb_walker_cache.replacements            0                       # number of replacements
system.cpu.dtb_walker_cache.tags.pwrStateResidencyTicks::UNDEFINED 270804508515000                       # Cumulative time (in ticks) in various power states
system.cpu.dtb_walker_cache.tags.tagsinuse            0                       # Cycle average of tags in use
system.cpu.dtb_walker_cache.tags.total_refs            0                       # Total number of references to valid blocks.
system.cpu.dtb_walker_cache.tags.sampled_refs            0                       # Sample count of references to valid blocks.
system.cpu.dtb_walker_cache.tags.avg_refs          nan                       # Average number of references to valid blocks.
system.cpu.dtb_walker_cache.tags.warmup_cycle            0                       # Cycle when the warmup percentage was hit.
system.cpu.dtb_walker_cache.tags.tag_accesses            0                       # Number of tag accesses
system.cpu.dtb_walker_cache.tags.data_accesses            0                       # Number of data accesses
system.cpu.dcache.pwrStateResidencyTicks::UNDEFINED 270804508515000                       # Cumulative time (in ticks) in various power states
system.cpu.dcache.demand_hits::.cpu.data            3                       # number of demand (read+write) hits
system.cpu.dcache.demand_hits::.switch_cpus.data     10264519                       # number of demand (read+write) hits
system.cpu.dcache.demand_hits::total         10264522                       # number of demand (read+write) hits
system.cpu.dcache.overall_hits::.cpu.data            3                       # number of overall hits
system.cpu.dcache.overall_hits::.switch_cpus.data     10280652                       # number of overall hits
system.cpu.dcache.overall_hits::total        10280655                       # number of overall hits
system.cpu.dcache.demand_misses::.cpu.data            3                       # number of demand (read+write) misses
system.cpu.dcache.demand_misses::.switch_cpus.data      3058338                       # number of demand (read+write) misses
system.cpu.dcache.demand_misses::total        3058341                       # number of demand (read+write) misses
system.cpu.dcache.overall_misses::.cpu.data            3                       # number of overall misses
system.cpu.dcache.overall_misses::.switch_cpus.data      3058597                       # number of overall misses
system.cpu.dcache.overall_misses::total       3058600                       # number of overall misses
system.cpu.dcache.demand_miss_latency::.switch_cpus.data 211275225760                       # number of demand (read+write) miss cycles
system.cpu.dcache.demand_miss_latency::total 211275225760                       # number of demand (read+write) miss cycles
system.cpu.dcache.overall_miss_latency::.switch_cpus.data 211275225760                       # number of overall miss cycles
system.cpu.dcache.overall_miss_latency::total 211275225760                       # number of overall miss cycles
system.cpu.dcache.demand_accesses::.cpu.data            6                       # number of demand (read+write) accesses
system.cpu.dcache.demand_accesses::.switch_cpus.data     13322857                       # number of demand (read+write) accesses
system.cpu.dcache.demand_accesses::total     13322863                       # number of demand (read+write) accesses
system.cpu.dcache.overall_accesses::.cpu.data            6                       # number of overall (read+write) accesses
system.cpu.dcache.overall_accesses::.switch_cpus.data     13339249                       # number of overall (read+write) accesses
system.cpu.dcache.overall_accesses::total     13339255                       # number of overall (read+write) accesses
system.cpu.dcache.demand_miss_rate::.cpu.data     0.500000                       # miss rate for demand accesses
system.cpu.dcache.demand_miss_rate::.switch_cpus.data     0.229556                       # miss rate for demand accesses
system.cpu.dcache.demand_miss_rate::total     0.229556                       # miss rate for demand accesses
system.cpu.dcache.overall_miss_rate::.cpu.data     0.500000                       # miss rate for overall accesses
system.cpu.dcache.overall_miss_rate::.switch_cpus.data     0.229293                       # miss rate for overall accesses
system.cpu.dcache.overall_miss_rate::total     0.229293                       # miss rate for overall accesses
system.cpu.dcache.demand_avg_miss_latency::.switch_cpus.data 69081.712276                       # average overall miss latency
system.cpu.dcache.demand_avg_miss_latency::total 69081.644512                       # average overall miss latency
system.cpu.dcache.overall_avg_miss_latency::.switch_cpus.data 69075.862482                       # average overall miss latency
system.cpu.dcache.overall_avg_miss_latency::total 69075.794730                       # average overall miss latency
system.cpu.dcache.blocked_cycles::no_mshrs      5282027                       # number of cycles access was blocked
system.cpu.dcache.blocked_cycles::no_targets           14                       # number of cycles access was blocked
system.cpu.dcache.blocked::no_mshrs            107981                       # number of cycles access was blocked
system.cpu.dcache.blocked::no_targets               1                       # number of cycles access was blocked
system.cpu.dcache.avg_blocked_cycles::no_mshrs    48.916263                       # average number of cycles each access was blocked
system.cpu.dcache.avg_blocked_cycles::no_targets           14                       # average number of cycles each access was blocked
system.cpu.dcache.writebacks::.writebacks        78625                       # number of writebacks
system.cpu.dcache.writebacks::total             78625                       # number of writebacks
system.cpu.dcache.demand_mshr_hits::.switch_cpus.data      2304629                       # number of demand (read+write) MSHR hits
system.cpu.dcache.demand_mshr_hits::total      2304629                       # number of demand (read+write) MSHR hits
system.cpu.dcache.overall_mshr_hits::.switch_cpus.data      2304629                       # number of overall MSHR hits
system.cpu.dcache.overall_mshr_hits::total      2304629                       # number of overall MSHR hits
system.cpu.dcache.demand_mshr_misses::.switch_cpus.data       753709                       # number of demand (read+write) MSHR misses
system.cpu.dcache.demand_mshr_misses::total       753709                       # number of demand (read+write) MSHR misses
system.cpu.dcache.overall_mshr_misses::.switch_cpus.data       753867                       # number of overall MSHR misses
system.cpu.dcache.overall_mshr_misses::total       753867                       # number of overall MSHR misses
system.cpu.dcache.demand_mshr_miss_latency::.switch_cpus.data  60056334262                       # number of demand (read+write) MSHR miss cycles
system.cpu.dcache.demand_mshr_miss_latency::total  60056334262                       # number of demand (read+write) MSHR miss cycles
system.cpu.dcache.overall_mshr_miss_latency::.switch_cpus.data  60063882762                       # number of overall MSHR miss cycles
system.cpu.dcache.overall_mshr_miss_latency::total  60063882762                       # number of overall MSHR miss cycles
system.cpu.dcache.demand_mshr_miss_rate::.switch_cpus.data     0.056573                       # mshr miss rate for demand accesses
system.cpu.dcache.demand_mshr_miss_rate::total     0.056573                       # mshr miss rate for demand accesses
system.cpu.dcache.overall_mshr_miss_rate::.switch_cpus.data     0.056515                       # mshr miss rate for overall accesses
system.cpu.dcache.overall_mshr_miss_rate::total     0.056515                       # mshr miss rate for overall accesses
system.cpu.dcache.demand_avg_mshr_miss_latency::.switch_cpus.data 79681.062933                       # average overall mshr miss latency
system.cpu.dcache.demand_avg_mshr_miss_latency::total 79681.062933                       # average overall mshr miss latency
system.cpu.dcache.overall_avg_mshr_miss_latency::.switch_cpus.data 79674.375934                       # average overall mshr miss latency
system.cpu.dcache.overall_avg_mshr_miss_latency::total 79674.375934                       # average overall mshr miss latency
system.cpu.dcache.replacements                 752845                       # number of replacements
system.cpu.dcache.ReadReq_hits::.cpu.data            3                       # number of ReadReq hits
system.cpu.dcache.ReadReq_hits::.switch_cpus.data      9061499                       # number of ReadReq hits
system.cpu.dcache.ReadReq_hits::total         9061502                       # number of ReadReq hits
system.cpu.dcache.ReadReq_misses::.cpu.data            2                       # number of ReadReq misses
system.cpu.dcache.ReadReq_misses::.switch_cpus.data      3011765                       # number of ReadReq misses
system.cpu.dcache.ReadReq_misses::total       3011767                       # number of ReadReq misses
system.cpu.dcache.ReadReq_miss_latency::.switch_cpus.data 207703834000                       # number of ReadReq miss cycles
system.cpu.dcache.ReadReq_miss_latency::total 207703834000                       # number of ReadReq miss cycles
system.cpu.dcache.ReadReq_accesses::.cpu.data            5                       # number of ReadReq accesses(hits+misses)
system.cpu.dcache.ReadReq_accesses::.switch_cpus.data     12073264                       # number of ReadReq accesses(hits+misses)
system.cpu.dcache.ReadReq_accesses::total     12073269                       # number of ReadReq accesses(hits+misses)
system.cpu.dcache.ReadReq_miss_rate::.cpu.data     0.400000                       # miss rate for ReadReq accesses
system.cpu.dcache.ReadReq_miss_rate::.switch_cpus.data     0.249457                       # miss rate for ReadReq accesses
system.cpu.dcache.ReadReq_miss_rate::total     0.249457                       # miss rate for ReadReq accesses
system.cpu.dcache.ReadReq_avg_miss_latency::.switch_cpus.data 68964.156898                       # average ReadReq miss latency
system.cpu.dcache.ReadReq_avg_miss_latency::total 68964.111102                       # average ReadReq miss latency
system.cpu.dcache.ReadReq_mshr_hits::.switch_cpus.data      2304409                       # number of ReadReq MSHR hits
system.cpu.dcache.ReadReq_mshr_hits::total      2304409                       # number of ReadReq MSHR hits
system.cpu.dcache.ReadReq_mshr_misses::.switch_cpus.data       707356                       # number of ReadReq MSHR misses
system.cpu.dcache.ReadReq_mshr_misses::total       707356                       # number of ReadReq MSHR misses
system.cpu.dcache.ReadReq_mshr_miss_latency::.switch_cpus.data  56541837500                       # number of ReadReq MSHR miss cycles
system.cpu.dcache.ReadReq_mshr_miss_latency::total  56541837500                       # number of ReadReq MSHR miss cycles
system.cpu.dcache.ReadReq_mshr_miss_rate::.switch_cpus.data     0.058589                       # mshr miss rate for ReadReq accesses
system.cpu.dcache.ReadReq_mshr_miss_rate::total     0.058589                       # mshr miss rate for ReadReq accesses
system.cpu.dcache.ReadReq_avg_mshr_miss_latency::.switch_cpus.data 79934.060784                       # average ReadReq mshr miss latency
system.cpu.dcache.ReadReq_avg_mshr_miss_latency::total 79934.060784                       # average ReadReq mshr miss latency
system.cpu.dcache.WriteReq_hits::.switch_cpus.data      1203020                       # number of WriteReq hits
system.cpu.dcache.WriteReq_hits::total        1203020                       # number of WriteReq hits
system.cpu.dcache.WriteReq_misses::.cpu.data            1                       # number of WriteReq misses
system.cpu.dcache.WriteReq_misses::.switch_cpus.data        46573                       # number of WriteReq misses
system.cpu.dcache.WriteReq_misses::total        46574                       # number of WriteReq misses
system.cpu.dcache.WriteReq_miss_latency::.switch_cpus.data   3571391760                       # number of WriteReq miss cycles
system.cpu.dcache.WriteReq_miss_latency::total   3571391760                       # number of WriteReq miss cycles
system.cpu.dcache.WriteReq_accesses::.cpu.data            1                       # number of WriteReq accesses(hits+misses)
system.cpu.dcache.WriteReq_accesses::.switch_cpus.data      1249593                       # number of WriteReq accesses(hits+misses)
system.cpu.dcache.WriteReq_accesses::total      1249594                       # number of WriteReq accesses(hits+misses)
system.cpu.dcache.WriteReq_miss_rate::.cpu.data            1                       # miss rate for WriteReq accesses
system.cpu.dcache.WriteReq_miss_rate::.switch_cpus.data     0.037271                       # miss rate for WriteReq accesses
system.cpu.dcache.WriteReq_miss_rate::total     0.037271                       # miss rate for WriteReq accesses
system.cpu.dcache.WriteReq_avg_miss_latency::.switch_cpus.data 76683.738647                       # average WriteReq miss latency
system.cpu.dcache.WriteReq_avg_miss_latency::total 76682.092154                       # average WriteReq miss latency
system.cpu.dcache.WriteReq_mshr_hits::.switch_cpus.data          220                       # number of WriteReq MSHR hits
system.cpu.dcache.WriteReq_mshr_hits::total          220                       # number of WriteReq MSHR hits
system.cpu.dcache.WriteReq_mshr_misses::.switch_cpus.data        46353                       # number of WriteReq MSHR misses
system.cpu.dcache.WriteReq_mshr_misses::total        46353                       # number of WriteReq MSHR misses
system.cpu.dcache.WriteReq_mshr_miss_latency::.switch_cpus.data   3514496762                       # number of WriteReq MSHR miss cycles
system.cpu.dcache.WriteReq_mshr_miss_latency::total   3514496762                       # number of WriteReq MSHR miss cycles
system.cpu.dcache.WriteReq_mshr_miss_rate::.switch_cpus.data     0.037094                       # mshr miss rate for WriteReq accesses
system.cpu.dcache.WriteReq_mshr_miss_rate::total     0.037094                       # mshr miss rate for WriteReq accesses
system.cpu.dcache.WriteReq_avg_mshr_miss_latency::.switch_cpus.data 75820.265398                       # average WriteReq mshr miss latency
system.cpu.dcache.WriteReq_avg_mshr_miss_latency::total 75820.265398                       # average WriteReq mshr miss latency
system.cpu.dcache.SoftPFReq_hits::.switch_cpus.data        16133                       # number of SoftPFReq hits
system.cpu.dcache.SoftPFReq_hits::total         16133                       # number of SoftPFReq hits
system.cpu.dcache.SoftPFReq_misses::.switch_cpus.data          259                       # number of SoftPFReq misses
system.cpu.dcache.SoftPFReq_misses::total          259                       # number of SoftPFReq misses
system.cpu.dcache.SoftPFReq_accesses::.switch_cpus.data        16392                       # number of SoftPFReq accesses(hits+misses)
system.cpu.dcache.SoftPFReq_accesses::total        16392                       # number of SoftPFReq accesses(hits+misses)
system.cpu.dcache.SoftPFReq_miss_rate::.switch_cpus.data     0.015800                       # miss rate for SoftPFReq accesses
system.cpu.dcache.SoftPFReq_miss_rate::total     0.015800                       # miss rate for SoftPFReq accesses
system.cpu.dcache.SoftPFReq_mshr_misses::.switch_cpus.data          158                       # number of SoftPFReq MSHR misses
system.cpu.dcache.SoftPFReq_mshr_misses::total          158                       # number of SoftPFReq MSHR misses
system.cpu.dcache.SoftPFReq_mshr_miss_latency::.switch_cpus.data      7548500                       # number of SoftPFReq MSHR miss cycles
system.cpu.dcache.SoftPFReq_mshr_miss_latency::total      7548500                       # number of SoftPFReq MSHR miss cycles
system.cpu.dcache.SoftPFReq_mshr_miss_rate::.switch_cpus.data     0.009639                       # mshr miss rate for SoftPFReq accesses
system.cpu.dcache.SoftPFReq_mshr_miss_rate::total     0.009639                       # mshr miss rate for SoftPFReq accesses
system.cpu.dcache.SoftPFReq_avg_mshr_miss_latency::.switch_cpus.data 47775.316456                       # average SoftPFReq mshr miss latency
system.cpu.dcache.SoftPFReq_avg_mshr_miss_latency::total 47775.316456                       # average SoftPFReq mshr miss latency
system.cpu.dcache.tags.pwrStateResidencyTicks::UNDEFINED 270804508515000                       # Cumulative time (in ticks) in various power states
system.cpu.dcache.tags.tagsinuse             0.140651                       # Cycle average of tags in use
system.cpu.dcache.tags.total_refs            11034524                       # Total number of references to valid blocks.
system.cpu.dcache.tags.sampled_refs            753869                       # Sample count of references to valid blocks.
system.cpu.dcache.tags.avg_refs             14.637190                       # Average number of references to valid blocks.
system.cpu.dcache.tags.warmup_cycle      270767280054500                       # Cycle when the warmup percentage was hit.
system.cpu.dcache.tags.occ_blocks::.cpu.data     0.000002                       # Average occupied blocks per requestor
system.cpu.dcache.tags.occ_blocks::.switch_cpus.data     0.140649                       # Average occupied blocks per requestor
system.cpu.dcache.tags.occ_percent::.cpu.data     0.000000                       # Average percentage of cache occupancy
system.cpu.dcache.tags.occ_percent::.switch_cpus.data     0.000137                       # Average percentage of cache occupancy
system.cpu.dcache.tags.occ_percent::total     0.000137                       # Average percentage of cache occupancy
system.cpu.dcache.tags.occ_task_id_blocks::1024         1024                       # Occupied blocks per task id
system.cpu.dcache.tags.age_task_id_blocks_1024::0          204                       # Occupied blocks per task id
system.cpu.dcache.tags.age_task_id_blocks_1024::1          817                       # Occupied blocks per task id
system.cpu.dcache.tags.age_task_id_blocks_1024::3            3                       # Occupied blocks per task id
system.cpu.dcache.tags.occ_task_id_percent::1024            1                       # Percentage of cache occupancy per task id
system.cpu.dcache.tags.tag_accesses          27432379                       # Number of tag accesses
system.cpu.dcache.tags.data_accesses         27432379                       # Number of data accesses

---------- End Simulation Statistics   ----------
