
---------- Begin Simulation Statistics ----------
final_tick                               926049899490000                       # Number of ticks from beginning of simulation (restored from checkpoints and never reset)
host_inst_rate                                  37196                       # Simulator instruction rate (inst/s)
host_mem_usage                                 829956                       # Number of bytes of host memory used
host_op_rate                                    62582                       # Simulator op (including micro ops) rate (op/s)
host_seconds                                   268.85                       # Real time elapsed on the host
host_tick_rate                               38297841                       # Simulator tick rate (ticks/s)
sim_freq                                 1000000000000                       # Frequency of simulated ticks
sim_insts                                    10000011                       # Number of instructions simulated
sim_ops                                      16825017                       # Number of ops (including micro ops) simulated
sim_seconds                                  0.010296                       # Number of seconds simulated
sim_ticks                                 10296207500                       # Number of ticks simulated
system.cpu.Branches                                 3                       # Number of branches fetched
system.cpu.committedInsts                           9                       # Number of instructions committed
system.cpu.committedOps                            18                       # Number of ops (including micro ops) committed
system.cpu.dtb.rdAccesses                           2                       # TLB accesses on read requests
system.cpu.dtb.rdMisses                             0                       # TLB misses on read requests
system.cpu.dtb.wrAccesses                           0                       # TLB accesses on write requests
system.cpu.dtb.wrMisses                             0                       # TLB misses on write requests
system.cpu.idle_fraction                            0                       # Percentage of idle cycles
system.cpu.itb.rdAccesses                           0                       # TLB accesses on read requests
system.cpu.itb.rdMisses                             0                       # TLB misses on read requests
system.cpu.itb.wrAccesses                          11                       # TLB accesses on write requests
system.cpu.itb.wrMisses                             0                       # TLB misses on write requests
system.cpu.not_idle_fraction                        1                       # Percentage of non-idle cycles
system.cpu.numCycles                               20                       # number of cpu cycles simulated
system.cpu.numWorkItemsCompleted                    0                       # number of work items this cpu completed
system.cpu.numWorkItemsStarted                      0                       # number of work items this cpu started
system.cpu.num_busy_cycles                         20                       # Number of busy cycles
system.cpu.num_cc_register_reads                   15                       # number of times the CC registers were read
system.cpu.num_cc_register_writes                   8                       # number of times the CC registers were written
system.cpu.num_conditional_control_insts            3                       # number of instructions that are conditional controls
system.cpu.num_fp_alu_accesses                      0                       # Number of float alu accesses
system.cpu.num_fp_insts                             0                       # number of float instructions
system.cpu.num_fp_register_reads                    0                       # number of times the floating registers were read
system.cpu.num_fp_register_writes                   0                       # number of times the floating registers were written
system.cpu.num_func_calls                           0                       # number of times a function call or return occured
system.cpu.num_idle_cycles                          0                       # Number of idle cycles
system.cpu.num_int_alu_accesses                    18                       # Number of integer alu accesses
system.cpu.num_int_insts                           18                       # number of integer instructions
system.cpu.num_int_register_reads                  29                       # number of times the integer registers were read
system.cpu.num_int_register_writes                 15                       # number of times the integer registers were written
system.cpu.num_load_insts                           2                       # Number of load instructions
system.cpu.num_mem_refs                             2                       # number of memory refs
system.cpu.num_store_insts                          0                       # Number of store instructions
system.cpu.num_vec_alu_accesses                     0                       # Number of vector alu accesses
system.cpu.num_vec_insts                            0                       # number of vector instructions
system.cpu.num_vec_register_reads                   0                       # number of times the vector registers were read
system.cpu.num_vec_register_writes                  0                       # number of times the vector registers were written
system.cpu.op_class::No_OpClass                     0      0.00%      0.00% # Class of executed instruction
system.cpu.op_class::IntAlu                        16     88.89%     88.89% # Class of executed instruction
system.cpu.op_class::IntMult                        0      0.00%     88.89% # Class of executed instruction
system.cpu.op_class::IntDiv                         0      0.00%     88.89% # Class of executed instruction
system.cpu.op_class::FloatAdd                       0      0.00%     88.89% # Class of executed instruction
system.cpu.op_class::FloatCmp                       0      0.00%     88.89% # Class of executed instruction
system.cpu.op_class::FloatCvt                       0      0.00%     88.89% # Class of executed instruction
system.cpu.op_class::FloatMult                      0      0.00%     88.89% # Class of executed instruction
system.cpu.op_class::FloatMultAcc                   0      0.00%     88.89% # Class of executed instruction
system.cpu.op_class::FloatDiv                       0      0.00%     88.89% # Class of executed instruction
system.cpu.op_class::FloatMisc                      0      0.00%     88.89% # Class of executed instruction
system.cpu.op_class::FloatSqrt                      0      0.00%     88.89% # Class of executed instruction
system.cpu.op_class::SimdAdd                        0      0.00%     88.89% # Class of executed instruction
system.cpu.op_class::SimdAddAcc                     0      0.00%     88.89% # Class of executed instruction
system.cpu.op_class::SimdAlu                        0      0.00%     88.89% # Class of executed instruction
system.cpu.op_class::SimdCmp                        0      0.00%     88.89% # Class of executed instruction
system.cpu.op_class::SimdCvt                        0      0.00%     88.89% # Class of executed instruction
system.cpu.op_class::SimdMisc                       0      0.00%     88.89% # Class of executed instruction
system.cpu.op_class::SimdMult                       0      0.00%     88.89% # Class of executed instruction
system.cpu.op_class::SimdMultAcc                    0      0.00%     88.89% # Class of executed instruction
system.cpu.op_class::SimdShift                      0      0.00%     88.89% # Class of executed instruction
system.cpu.op_class::SimdShiftAcc                   0      0.00%     88.89% # Class of executed instruction
system.cpu.op_class::SimdDiv                        0      0.00%     88.89% # Class of executed instruction
system.cpu.op_class::SimdSqrt                       0      0.00%     88.89% # Class of executed instruction
system.cpu.op_class::SimdFloatAdd                   0      0.00%     88.89% # Class of executed instruction
system.cpu.op_class::SimdFloatAlu                   0      0.00%     88.89% # Class of executed instruction
system.cpu.op_class::SimdFloatCmp                   0      0.00%     88.89% # Class of executed instruction
system.cpu.op_class::SimdFloatCvt                   0      0.00%     88.89% # Class of executed instruction
system.cpu.op_class::SimdFloatDiv                   0      0.00%     88.89% # Class of executed instruction
system.cpu.op_class::SimdFloatMisc                  0      0.00%     88.89% # Class of executed instruction
system.cpu.op_class::SimdFloatMult                  0      0.00%     88.89% # Class of executed instruction
system.cpu.op_class::SimdFloatMultAcc               0      0.00%     88.89% # Class of executed instruction
system.cpu.op_class::SimdFloatSqrt                  0      0.00%     88.89% # Class of executed instruction
system.cpu.op_class::SimdReduceAdd                  0      0.00%     88.89% # Class of executed instruction
system.cpu.op_class::SimdReduceAlu                  0      0.00%     88.89% # Class of executed instruction
system.cpu.op_class::SimdReduceCmp                  0      0.00%     88.89% # Class of executed instruction
system.cpu.op_class::SimdFloatReduceAdd             0      0.00%     88.89% # Class of executed instruction
system.cpu.op_class::SimdFloatReduceCmp             0      0.00%     88.89% # Class of executed instruction
system.cpu.op_class::SimdAes                        0      0.00%     88.89% # Class of executed instruction
system.cpu.op_class::SimdAesMix                     0      0.00%     88.89% # Class of executed instruction
system.cpu.op_class::SimdSha1Hash                   0      0.00%     88.89% # Class of executed instruction
system.cpu.op_class::SimdSha1Hash2                  0      0.00%     88.89% # Class of executed instruction
system.cpu.op_class::SimdSha256Hash                 0      0.00%     88.89% # Class of executed instruction
system.cpu.op_class::SimdSha256Hash2                0      0.00%     88.89% # Class of executed instruction
system.cpu.op_class::SimdShaSigma2                  0      0.00%     88.89% # Class of executed instruction
system.cpu.op_class::SimdShaSigma3                  0      0.00%     88.89% # Class of executed instruction
system.cpu.op_class::SimdPredAlu                    0      0.00%     88.89% # Class of executed instruction
system.cpu.op_class::MemRead                        2     11.11%    100.00% # Class of executed instruction
system.cpu.op_class::MemWrite                       0      0.00%    100.00% # Class of executed instruction
system.cpu.op_class::FloatMemRead                   0      0.00%    100.00% # Class of executed instruction
system.cpu.op_class::FloatMemWrite                  0      0.00%    100.00% # Class of executed instruction
system.cpu.op_class::IprAccess                      0      0.00%    100.00% # Class of executed instruction
system.cpu.op_class::InstPrefetch                   0      0.00%    100.00% # Class of executed instruction
system.cpu.op_class::total                         18                       # Class of executed instruction
system.cpu.workload.numSyscalls                     0                       # Number of system calls
system.l2.prefetcher.num_hwpf_issued             2655                       # number of hwpf issued
system.l2.prefetcher.pfBufferHit                    0                       # number of redundant prefetches already in prefetch queue
system.l2.prefetcher.pfIdentified                2655                       # number of prefetch candidates identified
system.l2.prefetcher.pfInCache                      0                       # number of redundant prefetches already in cache/mshr dropped
system.l2.prefetcher.pfRemovedFull                  0                       # number of prefetches dropped due to prefetch queue size
system.l2.prefetcher.pfSpanPage                   197                       # number of prefetches that crossed the page
system.membus.snoop_filter.hit_multi_requests            0                       # Number of requests hitting in the snoop filter with multiple (>1) holders of the requested data.
system.membus.snoop_filter.hit_multi_snoops            0                       # Number of snoops hitting in the snoop filter with multiple (>1) holders of the requested data.
system.membus.snoop_filter.hit_single_requests       162155                       # Number of requests hitting in the snoop filter with a single holder of the requested data.
system.membus.snoop_filter.hit_single_snoops            0                       # Number of snoops hitting in the snoop filter with a single holder of the requested data.
system.membus.snoop_filter.tot_requests        328645                       # Total number of requests made to the snoop filter.
system.membus.snoop_filter.tot_snoops               0                       # Total number of snoops made to the snoop filter.
system.switch_cpus.branchPred.BTBCorrect            0                       # Number of correct BTB predictions (this stat may not work properly.
system.switch_cpus.branchPred.BTBHitPct      0.000000                       # BTB Hit Percentage
system.switch_cpus.branchPred.BTBHits               0                       # Number of BTB hits
system.switch_cpus.branchPred.BTBLookups      5035518                       # Number of BTB lookups
system.switch_cpus.branchPred.RASInCorrect            0                       # Number of incorrect RAS predictions.
system.switch_cpus.branchPred.condIncorrect       573988                       # Number of conditional branches incorrect
system.switch_cpus.branchPred.condPredicted      6141142                       # Number of conditional branches predicted
system.switch_cpus.branchPred.indirectHits      2872226                       # Number of indirect target hits.
system.switch_cpus.branchPred.indirectLookups      5035518                       # Number of indirect predictor lookups.
system.switch_cpus.branchPred.indirectMisses      2163292                       # Number of indirect misses.
system.switch_cpus.branchPred.lookups         6164674                       # Number of BP lookups
system.switch_cpus.branchPred.usedRAS               4                       # Number of times the RAS was used to get a target.
system.switch_cpus.branchPredindirectMispredicted       269488                       # Number of mispredicted indirect branches.
system.switch_cpus.cc_regfile_reads          16327952                       # number of cc regfile reads
system.switch_cpus.cc_regfile_writes         12154314                       # number of cc regfile writes
system.switch_cpus.commit.amos                      0                       # Number of atomic instructions committed
system.switch_cpus.commit.branchMispredicts       573988                       # The number of times a branch was mispredicted
system.switch_cpus.commit.branches            2315914                       # Number of branches committed
system.switch_cpus.commit.bw_lim_events       1008053                       # number cycles where commit BW limit reached
system.switch_cpus.commit.commitSquashedInsts     19636360                       # The number of squashed insts skipped by commit
system.switch_cpus.commit.committedInsts     10000002                       # Number of instructions committed
system.switch_cpus.commit.committedOps       16824999                       # Number of ops (including micro ops) committed
system.switch_cpus.commit.committed_per_cycle::samples     17571143                       # Number of insts commited each cycle
system.switch_cpus.commit.committed_per_cycle::mean     0.957536                       # Number of insts commited each cycle
system.switch_cpus.commit.committed_per_cycle::stdev     2.152220                       # Number of insts commited each cycle
system.switch_cpus.commit.committed_per_cycle::underflows            0      0.00%      0.00% # Number of insts commited each cycle
system.switch_cpus.commit.committed_per_cycle::0     13197073     75.11%     75.11% # Number of insts commited each cycle
system.switch_cpus.commit.committed_per_cycle::1      1213443      6.91%     82.01% # Number of insts commited each cycle
system.switch_cpus.commit.committed_per_cycle::2       795593      4.53%     86.54% # Number of insts commited each cycle
system.switch_cpus.commit.committed_per_cycle::3       498387      2.84%     89.38% # Number of insts commited each cycle
system.switch_cpus.commit.committed_per_cycle::4       257076      1.46%     90.84% # Number of insts commited each cycle
system.switch_cpus.commit.committed_per_cycle::5       316263      1.80%     92.64% # Number of insts commited each cycle
system.switch_cpus.commit.committed_per_cycle::6       145619      0.83%     93.47% # Number of insts commited each cycle
system.switch_cpus.commit.committed_per_cycle::7       139636      0.79%     94.26% # Number of insts commited each cycle
system.switch_cpus.commit.committed_per_cycle::8      1008053      5.74%    100.00% # Number of insts commited each cycle
system.switch_cpus.commit.committed_per_cycle::overflows            0      0.00%    100.00% # Number of insts commited each cycle
system.switch_cpus.commit.committed_per_cycle::min_value            0                       # Number of insts commited each cycle
system.switch_cpus.commit.committed_per_cycle::max_value            8                       # Number of insts commited each cycle
system.switch_cpus.commit.committed_per_cycle::total     17571143                       # Number of insts commited each cycle
system.switch_cpus.commit.fp_insts              36688                       # Number of committed floating point instructions.
system.switch_cpus.commit.function_calls            0                       # Number of function calls committed.
system.switch_cpus.commit.int_insts          16806542                       # Number of committed integer instructions.
system.switch_cpus.commit.loads               1871376                       # Number of loads committed
system.switch_cpus.commit.membars                   0                       # Number of memory barriers committed
system.switch_cpus.commit.op_class_0::No_OpClass        18457      0.11%      0.11% # Class of committed instruction
system.switch_cpus.commit.op_class_0::IntAlu     14350133     85.29%     85.40% # Class of committed instruction
system.switch_cpus.commit.op_class_0::IntMult        10952      0.07%     85.47% # Class of committed instruction
system.switch_cpus.commit.op_class_0::IntDiv            0      0.00%     85.47% # Class of committed instruction
system.switch_cpus.commit.op_class_0::FloatAdd            0      0.00%     85.47% # Class of committed instruction
system.switch_cpus.commit.op_class_0::FloatCmp            0      0.00%     85.47% # Class of committed instruction
system.switch_cpus.commit.op_class_0::FloatCvt            0      0.00%     85.47% # Class of committed instruction
system.switch_cpus.commit.op_class_0::FloatMult            0      0.00%     85.47% # Class of committed instruction
system.switch_cpus.commit.op_class_0::FloatMultAcc            0      0.00%     85.47% # Class of committed instruction
system.switch_cpus.commit.op_class_0::FloatDiv            0      0.00%     85.47% # Class of committed instruction
system.switch_cpus.commit.op_class_0::FloatMisc            0      0.00%     85.47% # Class of committed instruction
system.switch_cpus.commit.op_class_0::FloatSqrt            0      0.00%     85.47% # Class of committed instruction
system.switch_cpus.commit.op_class_0::SimdAdd            0      0.00%     85.47% # Class of committed instruction
system.switch_cpus.commit.op_class_0::SimdAddAcc            0      0.00%     85.47% # Class of committed instruction
system.switch_cpus.commit.op_class_0::SimdAlu            0      0.00%     85.47% # Class of committed instruction
system.switch_cpus.commit.op_class_0::SimdCmp            0      0.00%     85.47% # Class of committed instruction
system.switch_cpus.commit.op_class_0::SimdCvt            0      0.00%     85.47% # Class of committed instruction
system.switch_cpus.commit.op_class_0::SimdMisc            0      0.00%     85.47% # Class of committed instruction
system.switch_cpus.commit.op_class_0::SimdMult            0      0.00%     85.47% # Class of committed instruction
system.switch_cpus.commit.op_class_0::SimdMultAcc            0      0.00%     85.47% # Class of committed instruction
system.switch_cpus.commit.op_class_0::SimdShift            0      0.00%     85.47% # Class of committed instruction
system.switch_cpus.commit.op_class_0::SimdShiftAcc            0      0.00%     85.47% # Class of committed instruction
system.switch_cpus.commit.op_class_0::SimdDiv            0      0.00%     85.47% # Class of committed instruction
system.switch_cpus.commit.op_class_0::SimdSqrt            0      0.00%     85.47% # Class of committed instruction
system.switch_cpus.commit.op_class_0::SimdFloatAdd            0      0.00%     85.47% # Class of committed instruction
system.switch_cpus.commit.op_class_0::SimdFloatAlu            0      0.00%     85.47% # Class of committed instruction
system.switch_cpus.commit.op_class_0::SimdFloatCmp            0      0.00%     85.47% # Class of committed instruction
system.switch_cpus.commit.op_class_0::SimdFloatCvt            0      0.00%     85.47% # Class of committed instruction
system.switch_cpus.commit.op_class_0::SimdFloatDiv            0      0.00%     85.47% # Class of committed instruction
system.switch_cpus.commit.op_class_0::SimdFloatMisc            0      0.00%     85.47% # Class of committed instruction
system.switch_cpus.commit.op_class_0::SimdFloatMult            0      0.00%     85.47% # Class of committed instruction
system.switch_cpus.commit.op_class_0::SimdFloatMultAcc            0      0.00%     85.47% # Class of committed instruction
system.switch_cpus.commit.op_class_0::SimdFloatSqrt            0      0.00%     85.47% # Class of committed instruction
system.switch_cpus.commit.op_class_0::SimdReduceAdd            0      0.00%     85.47% # Class of committed instruction
system.switch_cpus.commit.op_class_0::SimdReduceAlu            0      0.00%     85.47% # Class of committed instruction
system.switch_cpus.commit.op_class_0::SimdReduceCmp            0      0.00%     85.47% # Class of committed instruction
system.switch_cpus.commit.op_class_0::SimdFloatReduceAdd            0      0.00%     85.47% # Class of committed instruction
system.switch_cpus.commit.op_class_0::SimdFloatReduceCmp            0      0.00%     85.47% # Class of committed instruction
system.switch_cpus.commit.op_class_0::SimdAes            0      0.00%     85.47% # Class of committed instruction
system.switch_cpus.commit.op_class_0::SimdAesMix            0      0.00%     85.47% # Class of committed instruction
system.switch_cpus.commit.op_class_0::SimdSha1Hash            0      0.00%     85.47% # Class of committed instruction
system.switch_cpus.commit.op_class_0::SimdSha1Hash2            0      0.00%     85.47% # Class of committed instruction
system.switch_cpus.commit.op_class_0::SimdSha256Hash            0      0.00%     85.47% # Class of committed instruction
system.switch_cpus.commit.op_class_0::SimdSha256Hash2            0      0.00%     85.47% # Class of committed instruction
system.switch_cpus.commit.op_class_0::SimdShaSigma2            0      0.00%     85.47% # Class of committed instruction
system.switch_cpus.commit.op_class_0::SimdShaSigma3            0      0.00%     85.47% # Class of committed instruction
system.switch_cpus.commit.op_class_0::SimdPredAlu            0      0.00%     85.47% # Class of committed instruction
system.switch_cpus.commit.op_class_0::MemRead      1853032     11.01%     96.48% # Class of committed instruction
system.switch_cpus.commit.op_class_0::MemWrite       555737      3.30%     99.78% # Class of committed instruction
system.switch_cpus.commit.op_class_0::FloatMemRead        18344      0.11%     99.89% # Class of committed instruction
system.switch_cpus.commit.op_class_0::FloatMemWrite        18344      0.11%    100.00% # Class of committed instruction
system.switch_cpus.commit.op_class_0::IprAccess            0      0.00%    100.00% # Class of committed instruction
system.switch_cpus.commit.op_class_0::InstPrefetch            0      0.00%    100.00% # Class of committed instruction
system.switch_cpus.commit.op_class_0::total     16824999                       # Class of committed instruction
system.switch_cpus.commit.refs                2445457                       # Number of memory references committed
system.switch_cpus.commit.swp_count                 0                       # Number of s/w prefetches committed
system.switch_cpus.commit.vec_insts                 0                       # Number of committed Vector instructions.
system.switch_cpus.committedInsts            10000002                       # Number of Instructions Simulated
system.switch_cpus.committedOps              16824999                       # Number of Ops (including micro ops) Simulated
system.switch_cpus.cpi                       2.059239                       # CPI: Cycles Per Instruction
system.switch_cpus.cpi_total                 2.059239                       # CPI: Total CPI of All Threads
system.switch_cpus.decode.BlockedCycles       8989106                       # Number of cycles decode is blocked
system.switch_cpus.decode.DecodedInsts       43640642                       # Number of instructions handled by decode
system.switch_cpus.decode.IdleCycles          3949414                       # Number of cycles decode is idle
system.switch_cpus.decode.RunCycles           6475175                       # Number of cycles decode is running
system.switch_cpus.decode.SquashCycles         575216                       # Number of cycles decode is squashing
system.switch_cpus.decode.UnblockCycles        600574                       # Number of cycles decode is unblocking
system.switch_cpus.dtb.rdAccesses             3299038                       # TLB accesses on read requests
system.switch_cpus.dtb.rdMisses                370571                       # TLB misses on read requests
system.switch_cpus.dtb.wrAccesses             1045453                       # TLB accesses on write requests
system.switch_cpus.dtb.wrMisses                  3246                       # TLB misses on write requests
system.switch_cpus.fetch.Branches             6164674                       # Number of branches that fetch encountered
system.switch_cpus.fetch.CacheLines           4717471                       # Number of cache lines fetched
system.switch_cpus.fetch.Cycles              15001236                       # Number of cycles fetch has run and was not squashing or blocked
system.switch_cpus.fetch.IcacheSquashes        171735                       # Number of outstanding Icache misses that were squashed
system.switch_cpus.fetch.Insts               29588386                       # Number of instructions fetch has processed
system.switch_cpus.fetch.SquashCycles         1150432                       # Number of cycles fetch has spent squashing
system.switch_cpus.fetch.branchRate          0.299367                       # Number of branch fetches per cycle
system.switch_cpus.fetch.icacheStallCycles      5013038                       # Number of cycles fetch is stalled on an Icache miss
system.switch_cpus.fetch.predictedBranches      2872230                       # Number of branches that fetch has predicted taken
system.switch_cpus.fetch.rate                1.436860                       # Number of inst fetches per cycle
system.switch_cpus.fetch.rateDist::samples     20589490                       # Number of instructions fetched each cycle (Total)
system.switch_cpus.fetch.rateDist::mean      2.334846                       # Number of instructions fetched each cycle (Total)
system.switch_cpus.fetch.rateDist::stdev     3.239602                       # Number of instructions fetched each cycle (Total)
system.switch_cpus.fetch.rateDist::underflows            0      0.00%      0.00% # Number of instructions fetched each cycle (Total)
system.switch_cpus.fetch.rateDist::0         12066782     58.61%     58.61% # Number of instructions fetched each cycle (Total)
system.switch_cpus.fetch.rateDist::1           692997      3.37%     61.97% # Number of instructions fetched each cycle (Total)
system.switch_cpus.fetch.rateDist::2           861642      4.18%     66.16% # Number of instructions fetched each cycle (Total)
system.switch_cpus.fetch.rateDist::3           964239      4.68%     70.84% # Number of instructions fetched each cycle (Total)
system.switch_cpus.fetch.rateDist::4           476022      2.31%     73.15% # Number of instructions fetched each cycle (Total)
system.switch_cpus.fetch.rateDist::5           433359      2.10%     75.26% # Number of instructions fetched each cycle (Total)
system.switch_cpus.fetch.rateDist::6           975462      4.74%     79.99% # Number of instructions fetched each cycle (Total)
system.switch_cpus.fetch.rateDist::7           111267      0.54%     80.54% # Number of instructions fetched each cycle (Total)
system.switch_cpus.fetch.rateDist::8          4007720     19.46%    100.00% # Number of instructions fetched each cycle (Total)
system.switch_cpus.fetch.rateDist::overflows            0      0.00%    100.00% # Number of instructions fetched each cycle (Total)
system.switch_cpus.fetch.rateDist::min_value            0                       # Number of instructions fetched each cycle (Total)
system.switch_cpus.fetch.rateDist::max_value            8                       # Number of instructions fetched each cycle (Total)
system.switch_cpus.fetch.rateDist::total     20589490                       # Number of instructions fetched each cycle (Total)
system.switch_cpus.fp_regfile_reads             18408                       # number of floating regfile reads
system.switch_cpus.fp_regfile_writes            18610                       # number of floating regfile writes
system.switch_cpus.idleCycles                    2905                       # Total number of cycles that the CPU has spent unscheduled due to idling
system.switch_cpus.iew.branchMispredicts       648933                       # Number of branch mispredicts detected at execute
system.switch_cpus.iew.exec_branches          3648917                       # Number of branches executed
system.switch_cpus.iew.exec_nop                     0                       # number of nop insts executed
system.switch_cpus.iew.exec_rate             1.528983                       # Inst execution rate
system.switch_cpus.iew.exec_refs              4843013                       # number of memory reference insts executed
system.switch_cpus.iew.exec_stores            1044319                       # Number of stores executed
system.switch_cpus.iew.exec_swp                     0                       # number of swp insts executed
system.switch_cpus.iew.iewBlockCycles         2628608                       # Number of cycles IEW is blocking
system.switch_cpus.iew.iewDispLoadInsts       4027075                       # Number of dispatched load instructions
system.switch_cpus.iew.iewDispNonSpecInsts            0                       # Number of dispatched non-speculative instructions
system.switch_cpus.iew.iewDispSquashedInsts        62831                       # Number of squashed instructions skipped by dispatch
system.switch_cpus.iew.iewDispStoreInsts      1526408                       # Number of dispatched store instructions
system.switch_cpus.iew.iewDispatchedInsts     36461365                       # Number of instructions dispatched to IQ
system.switch_cpus.iew.iewExecLoadInsts       3798694                       # Number of load instructions executed
system.switch_cpus.iew.iewExecSquashedInsts      1292599                       # Number of squashed instructions skipped in execute
system.switch_cpus.iew.iewExecutedInsts      31485414                       # Number of executed instructions
system.switch_cpus.iew.iewIQFullEvents           7721                       # Number of times the IQ has become full, causing a stall
system.switch_cpus.iew.iewIdleCycles                0                       # Number of cycles IEW is idle
system.switch_cpus.iew.iewLSQFullEvents            49                       # Number of times the LSQ has become full, causing a stall
system.switch_cpus.iew.iewSquashCycles         575216                       # Number of cycles IEW is squashing
system.switch_cpus.iew.iewUnblockCycles         10175                       # Number of cycles IEW is unblocking
system.switch_cpus.iew.lsq.thread0.blockedLoads            0                       # Number of blocked loads due to partial load-store forwarding
system.switch_cpus.iew.lsq.thread0.cacheBlocked       132282                       # Number of times an access to memory failed due to the cache being blocked
system.switch_cpus.iew.lsq.thread0.forwLoads       123678                       # Number of loads that had data forwarded from stores
system.switch_cpus.iew.lsq.thread0.ignoredResponses         1427                       # Number of memory responses ignored because the instruction is squashed
system.switch_cpus.iew.lsq.thread0.invAddrLoads            0                       # Number of loads ignored due to an invalid address
system.switch_cpus.iew.lsq.thread0.invAddrSwpfs            0                       # Number of software prefetches ignored due to an invalid address
system.switch_cpus.iew.lsq.thread0.memOrderViolation         1956                       # Number of memory ordering violations
system.switch_cpus.iew.lsq.thread0.rescheduledLoads            2                       # Number of loads that were rescheduled
system.switch_cpus.iew.lsq.thread0.squashedLoads      2155699                       # Number of loads squashed
system.switch_cpus.iew.lsq.thread0.squashedStores       952327                       # Number of stores squashed
system.switch_cpus.iew.memOrderViolationEvents         1956                       # Number of memory order violations
system.switch_cpus.iew.predictedNotTakenIncorrect       448120                       # Number of branches that were predicted not taken incorrectly
system.switch_cpus.iew.predictedTakenIncorrect       200813                       # Number of branches that were predicted taken incorrectly
system.switch_cpus.iew.wb_consumers          30125801                       # num instructions consuming a value
system.switch_cpus.iew.wb_count              30436841                       # cumulative count of insts written-back
system.switch_cpus.iew.wb_fanout             0.724036                       # average fanout of values written-back
system.switch_cpus.iew.wb_producers          21812165                       # num instructions producing a value
system.switch_cpus.iew.wb_rate               1.478062                       # insts written-back per cycle
system.switch_cpus.iew.wb_sent               30572991                       # cumulative count of insts sent to commit
system.switch_cpus.int_regfile_reads         41230137                       # number of integer regfile reads
system.switch_cpus.int_regfile_writes        25713667                       # number of integer regfile writes
system.switch_cpus.ipc                       0.485616                       # IPC: Instructions Per Cycle
system.switch_cpus.ipc_total                 0.485616                       # IPC: Total IPC of All Threads
system.switch_cpus.iq.FU_type_0::No_OpClass       126678      0.39%      0.39% # Type of FU issued
system.switch_cpus.iq.FU_type_0::IntAlu      27553601     84.06%     84.45% # Type of FU issued
system.switch_cpus.iq.FU_type_0::IntMult        13828      0.04%     84.49% # Type of FU issued
system.switch_cpus.iq.FU_type_0::IntDiv             0      0.00%     84.49% # Type of FU issued
system.switch_cpus.iq.FU_type_0::FloatAdd            0      0.00%     84.49% # Type of FU issued
system.switch_cpus.iq.FU_type_0::FloatCmp            0      0.00%     84.49% # Type of FU issued
system.switch_cpus.iq.FU_type_0::FloatCvt            0      0.00%     84.49% # Type of FU issued
system.switch_cpus.iq.FU_type_0::FloatMult            0      0.00%     84.49% # Type of FU issued
system.switch_cpus.iq.FU_type_0::FloatMultAcc            0      0.00%     84.49% # Type of FU issued
system.switch_cpus.iq.FU_type_0::FloatDiv            0      0.00%     84.49% # Type of FU issued
system.switch_cpus.iq.FU_type_0::FloatMisc            0      0.00%     84.49% # Type of FU issued
system.switch_cpus.iq.FU_type_0::FloatSqrt            0      0.00%     84.49% # Type of FU issued
system.switch_cpus.iq.FU_type_0::SimdAdd            0      0.00%     84.49% # Type of FU issued
system.switch_cpus.iq.FU_type_0::SimdAddAcc            0      0.00%     84.49% # Type of FU issued
system.switch_cpus.iq.FU_type_0::SimdAlu            0      0.00%     84.49% # Type of FU issued
system.switch_cpus.iq.FU_type_0::SimdCmp            0      0.00%     84.49% # Type of FU issued
system.switch_cpus.iq.FU_type_0::SimdCvt            0      0.00%     84.49% # Type of FU issued
system.switch_cpus.iq.FU_type_0::SimdMisc            0      0.00%     84.49% # Type of FU issued
system.switch_cpus.iq.FU_type_0::SimdMult            0      0.00%     84.49% # Type of FU issued
system.switch_cpus.iq.FU_type_0::SimdMultAcc            0      0.00%     84.49% # Type of FU issued
system.switch_cpus.iq.FU_type_0::SimdShift            0      0.00%     84.49% # Type of FU issued
system.switch_cpus.iq.FU_type_0::SimdShiftAcc            0      0.00%     84.49% # Type of FU issued
system.switch_cpus.iq.FU_type_0::SimdDiv            0      0.00%     84.49% # Type of FU issued
system.switch_cpus.iq.FU_type_0::SimdSqrt            0      0.00%     84.49% # Type of FU issued
system.switch_cpus.iq.FU_type_0::SimdFloatAdd            0      0.00%     84.49% # Type of FU issued
system.switch_cpus.iq.FU_type_0::SimdFloatAlu            0      0.00%     84.49% # Type of FU issued
system.switch_cpus.iq.FU_type_0::SimdFloatCmp            0      0.00%     84.49% # Type of FU issued
system.switch_cpus.iq.FU_type_0::SimdFloatCvt            0      0.00%     84.49% # Type of FU issued
system.switch_cpus.iq.FU_type_0::SimdFloatDiv            0      0.00%     84.49% # Type of FU issued
system.switch_cpus.iq.FU_type_0::SimdFloatMisc            0      0.00%     84.49% # Type of FU issued
system.switch_cpus.iq.FU_type_0::SimdFloatMult            0      0.00%     84.49% # Type of FU issued
system.switch_cpus.iq.FU_type_0::SimdFloatMultAcc            0      0.00%     84.49% # Type of FU issued
system.switch_cpus.iq.FU_type_0::SimdFloatSqrt            0      0.00%     84.49% # Type of FU issued
system.switch_cpus.iq.FU_type_0::SimdReduceAdd            0      0.00%     84.49% # Type of FU issued
system.switch_cpus.iq.FU_type_0::SimdReduceAlu            0      0.00%     84.49% # Type of FU issued
system.switch_cpus.iq.FU_type_0::SimdReduceCmp            0      0.00%     84.49% # Type of FU issued
system.switch_cpus.iq.FU_type_0::SimdFloatReduceAdd            0      0.00%     84.49% # Type of FU issued
system.switch_cpus.iq.FU_type_0::SimdFloatReduceCmp            0      0.00%     84.49% # Type of FU issued
system.switch_cpus.iq.FU_type_0::SimdAes            0      0.00%     84.49% # Type of FU issued
system.switch_cpus.iq.FU_type_0::SimdAesMix            0      0.00%     84.49% # Type of FU issued
system.switch_cpus.iq.FU_type_0::SimdSha1Hash            0      0.00%     84.49% # Type of FU issued
system.switch_cpus.iq.FU_type_0::SimdSha1Hash2            0      0.00%     84.49% # Type of FU issued
system.switch_cpus.iq.FU_type_0::SimdSha256Hash            0      0.00%     84.49% # Type of FU issued
system.switch_cpus.iq.FU_type_0::SimdSha256Hash2            0      0.00%     84.49% # Type of FU issued
system.switch_cpus.iq.FU_type_0::SimdShaSigma2            0      0.00%     84.49% # Type of FU issued
system.switch_cpus.iq.FU_type_0::SimdShaSigma3            0      0.00%     84.49% # Type of FU issued
system.switch_cpus.iq.FU_type_0::SimdPredAlu            0      0.00%     84.49% # Type of FU issued
system.switch_cpus.iq.FU_type_0::MemRead      3976440     12.13%     96.62% # Type of FU issued
system.switch_cpus.iq.FU_type_0::MemWrite      1069684      3.26%     99.88% # Type of FU issued
system.switch_cpus.iq.FU_type_0::FloatMemRead        19347      0.06%     99.94% # Type of FU issued
system.switch_cpus.iq.FU_type_0::FloatMemWrite        18438      0.06%    100.00% # Type of FU issued
system.switch_cpus.iq.FU_type_0::IprAccess            0      0.00%    100.00% # Type of FU issued
system.switch_cpus.iq.FU_type_0::InstPrefetch            0      0.00%    100.00% # Type of FU issued
system.switch_cpus.iq.FU_type_0::total       32778016                       # Type of FU issued
system.switch_cpus.iq.fp_alu_accesses           38363                       # Number of floating point alu accesses
system.switch_cpus.iq.fp_inst_queue_reads        76167                       # Number of floating instruction queue reads
system.switch_cpus.iq.fp_inst_queue_wakeup_accesses        36837                       # Number of floating instruction queue wakeup accesses
system.switch_cpus.iq.fp_inst_queue_writes        49320                       # Number of floating instruction queue writes
system.switch_cpus.iq.fu_busy_cnt              483874                       # FU busy when requested
system.switch_cpus.iq.fu_busy_rate           0.014762                       # FU busy rate (busy events/executed inst)
system.switch_cpus.iq.fu_full::No_OpClass            0      0.00%      0.00% # attempts to use FU when none available
system.switch_cpus.iq.fu_full::IntAlu          416660     86.11%     86.11% # attempts to use FU when none available
system.switch_cpus.iq.fu_full::IntMult              0      0.00%     86.11% # attempts to use FU when none available
system.switch_cpus.iq.fu_full::IntDiv               0      0.00%     86.11% # attempts to use FU when none available
system.switch_cpus.iq.fu_full::FloatAdd             0      0.00%     86.11% # attempts to use FU when none available
system.switch_cpus.iq.fu_full::FloatCmp             0      0.00%     86.11% # attempts to use FU when none available
system.switch_cpus.iq.fu_full::FloatCvt             0      0.00%     86.11% # attempts to use FU when none available
system.switch_cpus.iq.fu_full::FloatMult            0      0.00%     86.11% # attempts to use FU when none available
system.switch_cpus.iq.fu_full::FloatMultAcc            0      0.00%     86.11% # attempts to use FU when none available
system.switch_cpus.iq.fu_full::FloatDiv             0      0.00%     86.11% # attempts to use FU when none available
system.switch_cpus.iq.fu_full::FloatMisc            0      0.00%     86.11% # attempts to use FU when none available
system.switch_cpus.iq.fu_full::FloatSqrt            0      0.00%     86.11% # attempts to use FU when none available
system.switch_cpus.iq.fu_full::SimdAdd              0      0.00%     86.11% # attempts to use FU when none available
system.switch_cpus.iq.fu_full::SimdAddAcc            0      0.00%     86.11% # attempts to use FU when none available
system.switch_cpus.iq.fu_full::SimdAlu              0      0.00%     86.11% # attempts to use FU when none available
system.switch_cpus.iq.fu_full::SimdCmp              0      0.00%     86.11% # attempts to use FU when none available
system.switch_cpus.iq.fu_full::SimdCvt              0      0.00%     86.11% # attempts to use FU when none available
system.switch_cpus.iq.fu_full::SimdMisc             0      0.00%     86.11% # attempts to use FU when none available
system.switch_cpus.iq.fu_full::SimdMult             0      0.00%     86.11% # attempts to use FU when none available
system.switch_cpus.iq.fu_full::SimdMultAcc            0      0.00%     86.11% # attempts to use FU when none available
system.switch_cpus.iq.fu_full::SimdShift            0      0.00%     86.11% # attempts to use FU when none available
system.switch_cpus.iq.fu_full::SimdShiftAcc            0      0.00%     86.11% # attempts to use FU when none available
system.switch_cpus.iq.fu_full::SimdDiv              0      0.00%     86.11% # attempts to use FU when none available
system.switch_cpus.iq.fu_full::SimdSqrt             0      0.00%     86.11% # attempts to use FU when none available
system.switch_cpus.iq.fu_full::SimdFloatAdd            0      0.00%     86.11% # attempts to use FU when none available
system.switch_cpus.iq.fu_full::SimdFloatAlu            0      0.00%     86.11% # attempts to use FU when none available
system.switch_cpus.iq.fu_full::SimdFloatCmp            0      0.00%     86.11% # attempts to use FU when none available
system.switch_cpus.iq.fu_full::SimdFloatCvt            0      0.00%     86.11% # attempts to use FU when none available
system.switch_cpus.iq.fu_full::SimdFloatDiv            0      0.00%     86.11% # attempts to use FU when none available
system.switch_cpus.iq.fu_full::SimdFloatMisc            0      0.00%     86.11% # attempts to use FU when none available
system.switch_cpus.iq.fu_full::SimdFloatMult            0      0.00%     86.11% # attempts to use FU when none available
system.switch_cpus.iq.fu_full::SimdFloatMultAcc            0      0.00%     86.11% # attempts to use FU when none available
system.switch_cpus.iq.fu_full::SimdFloatSqrt            0      0.00%     86.11% # attempts to use FU when none available
system.switch_cpus.iq.fu_full::SimdReduceAdd            0      0.00%     86.11% # attempts to use FU when none available
system.switch_cpus.iq.fu_full::SimdReduceAlu            0      0.00%     86.11% # attempts to use FU when none available
system.switch_cpus.iq.fu_full::SimdReduceCmp            0      0.00%     86.11% # attempts to use FU when none available
system.switch_cpus.iq.fu_full::SimdFloatReduceAdd            0      0.00%     86.11% # attempts to use FU when none available
system.switch_cpus.iq.fu_full::SimdFloatReduceCmp            0      0.00%     86.11% # attempts to use FU when none available
system.switch_cpus.iq.fu_full::SimdAes              0      0.00%     86.11% # attempts to use FU when none available
system.switch_cpus.iq.fu_full::SimdAesMix            0      0.00%     86.11% # attempts to use FU when none available
system.switch_cpus.iq.fu_full::SimdSha1Hash            0      0.00%     86.11% # attempts to use FU when none available
system.switch_cpus.iq.fu_full::SimdSha1Hash2            0      0.00%     86.11% # attempts to use FU when none available
system.switch_cpus.iq.fu_full::SimdSha256Hash            0      0.00%     86.11% # attempts to use FU when none available
system.switch_cpus.iq.fu_full::SimdSha256Hash2            0      0.00%     86.11% # attempts to use FU when none available
system.switch_cpus.iq.fu_full::SimdShaSigma2            0      0.00%     86.11% # attempts to use FU when none available
system.switch_cpus.iq.fu_full::SimdShaSigma3            0      0.00%     86.11% # attempts to use FU when none available
system.switch_cpus.iq.fu_full::SimdPredAlu            0      0.00%     86.11% # attempts to use FU when none available
system.switch_cpus.iq.fu_full::MemRead          66423     13.73%     99.84% # attempts to use FU when none available
system.switch_cpus.iq.fu_full::MemWrite           213      0.04%     99.88% # attempts to use FU when none available
system.switch_cpus.iq.fu_full::FloatMemRead          559      0.12%    100.00% # attempts to use FU when none available
system.switch_cpus.iq.fu_full::FloatMemWrite           19      0.00%    100.00% # attempts to use FU when none available
system.switch_cpus.iq.fu_full::IprAccess            0      0.00%    100.00% # attempts to use FU when none available
system.switch_cpus.iq.fu_full::InstPrefetch            0      0.00%    100.00% # attempts to use FU when none available
system.switch_cpus.iq.int_alu_accesses       33096849                       # Number of integer alu accesses
system.switch_cpus.iq.int_inst_queue_reads     86671062                       # Number of integer instruction queue reads
system.switch_cpus.iq.int_inst_queue_wakeup_accesses     30400004                       # Number of integer instruction queue wakeup accesses
system.switch_cpus.iq.int_inst_queue_writes     56050139                       # Number of integer instruction queue writes
system.switch_cpus.iq.iqInstsAdded           36461365                       # Number of instructions added to the IQ (excludes non-spec)
system.switch_cpus.iq.iqInstsIssued          32778016                       # Number of instructions issued
system.switch_cpus.iq.iqSquashedInstsExamined     19636356                       # Number of squashed instructions iterated over during squash; mainly for profiling
system.switch_cpus.iq.iqSquashedInstsIssued       117836                       # Number of squashed instructions issued
system.switch_cpus.iq.iqSquashedOperandsExamined     19452811                       # Number of squashed operands that are examined and possibly removed from graph
system.switch_cpus.iq.issued_per_cycle::samples     20589490                       # Number of insts issued each cycle
system.switch_cpus.iq.issued_per_cycle::mean     1.591978                       # Number of insts issued each cycle
system.switch_cpus.iq.issued_per_cycle::stdev     2.202537                       # Number of insts issued each cycle
system.switch_cpus.iq.issued_per_cycle::underflows            0      0.00%      0.00% # Number of insts issued each cycle
system.switch_cpus.iq.issued_per_cycle::0     11711144     56.88%     56.88% # Number of insts issued each cycle
system.switch_cpus.iq.issued_per_cycle::1      1168877      5.68%     62.56% # Number of insts issued each cycle
system.switch_cpus.iq.issued_per_cycle::2      1637526      7.95%     70.51% # Number of insts issued each cycle
system.switch_cpus.iq.issued_per_cycle::3      1569569      7.62%     78.13% # Number of insts issued each cycle
system.switch_cpus.iq.issued_per_cycle::4      1568261      7.62%     85.75% # Number of insts issued each cycle
system.switch_cpus.iq.issued_per_cycle::5      1205090      5.85%     91.60% # Number of insts issued each cycle
system.switch_cpus.iq.issued_per_cycle::6       961239      4.67%     96.27% # Number of insts issued each cycle
system.switch_cpus.iq.issued_per_cycle::7       582820      2.83%     99.10% # Number of insts issued each cycle
system.switch_cpus.iq.issued_per_cycle::8       184964      0.90%    100.00% # Number of insts issued each cycle
system.switch_cpus.iq.issued_per_cycle::overflows            0      0.00%    100.00% # Number of insts issued each cycle
system.switch_cpus.iq.issued_per_cycle::min_value            0                       # Number of insts issued each cycle
system.switch_cpus.iq.issued_per_cycle::max_value            8                       # Number of insts issued each cycle
system.switch_cpus.iq.issued_per_cycle::total     20589490                       # Number of insts issued each cycle
system.switch_cpus.iq.rate                   1.591753                       # Inst issue rate
system.switch_cpus.iq.vec_alu_accesses              0                       # Number of vector alu accesses
system.switch_cpus.iq.vec_inst_queue_reads            0                       # Number of vector instruction queue reads
system.switch_cpus.iq.vec_inst_queue_wakeup_accesses            0                       # Number of vector instruction queue wakeup accesses
system.switch_cpus.iq.vec_inst_queue_writes            0                       # Number of vector instruction queue writes
system.switch_cpus.itb.rdAccesses                   0                       # TLB accesses on read requests
system.switch_cpus.itb.rdMisses                     0                       # TLB misses on read requests
system.switch_cpus.itb.wrAccesses             4717471                       # TLB accesses on write requests
system.switch_cpus.itb.wrMisses                     4                       # TLB misses on write requests
system.switch_cpus.memDep0.conflictingLoads       487843                       # Number of conflicting loads.
system.switch_cpus.memDep0.conflictingStores       582775                       # Number of conflicting stores.
system.switch_cpus.memDep0.insertedLoads      4027075                       # Number of loads inserted to the mem dependence unit.
system.switch_cpus.memDep0.insertedStores      1526408                       # Number of stores inserted to the mem dependence unit.
system.switch_cpus.misc_regfile_reads        13058233                       # number of misc regfile reads
system.switch_cpus.misc_regfile_writes              1                       # number of misc regfile writes
system.switch_cpus.numCycles                 20592395                       # number of cpu cycles simulated
system.switch_cpus.numWorkItemsCompleted            0                       # number of work items this cpu completed
system.switch_cpus.numWorkItemsStarted              0                       # number of work items this cpu started
system.switch_cpus.rename.BlockCycles         8643187                       # Number of cycles rename is blocking
system.switch_cpus.rename.CommittedMaps      20843697                       # Number of HB maps that are committed
system.switch_cpus.rename.IQFullEvents         106047                       # Number of times rename has blocked due to IQ full
system.switch_cpus.rename.IdleCycles          4372649                       # Number of cycles rename is idle
system.switch_cpus.rename.LQFullEvents             13                       # Number of times rename has blocked due to LQ full
system.switch_cpus.rename.ROBFullEvents        263735                       # Number of times rename has blocked due to ROB full
system.switch_cpus.rename.RenameLookups     100496951                       # Number of register rename lookups that rename has made
system.switch_cpus.rename.RenamedInsts       41045676                       # Number of instructions processed by rename
system.switch_cpus.rename.RenamedOperands     50656135                       # Number of destination operands rename has renamed
system.switch_cpus.rename.RunCycles           6514438                       # Number of cycles rename is running
system.switch_cpus.rename.SQFullEvents            295                       # Number of times rename has blocked due to SQ full
system.switch_cpus.rename.SquashCycles         575216                       # Number of cycles rename is squashing
system.switch_cpus.rename.UnblockCycles        483995                       # Number of cycles rename is unblocking
system.switch_cpus.rename.UndoneMaps         29812403                       # Number of HB maps that are undone due to squashing
system.switch_cpus.rename.fp_rename_lookups        22972                       # Number of floating rename lookups
system.switch_cpus.rename.int_rename_lookups     57776854                       # Number of integer rename lookups
system.switch_cpus.rename.serializeStallCycles            0                       # count of cycles rename stalled for serializing inst
system.switch_cpus.rename.serializingInsts            0                       # count of serializing insts renamed
system.switch_cpus.rename.skidInsts           1745238                       # count of insts added to the skid buffer
system.switch_cpus.rename.tempSerializingInsts            0                       # count of temporary serializing insts renamed
system.switch_cpus.rob.rob_reads             53024449                       # The number of ROB reads
system.switch_cpus.rob.rob_writes            75961652                       # The number of ROB writes
system.switch_cpus.timesIdled                      28                       # Number of times that the entire CPU went into an idle state and unscheduled itself
system.tol2bus.snoop_filter.hit_multi_requests            0                       # Number of requests hitting in the snoop filter with multiple (>1) holders of the requested data.
system.tol2bus.snoop_filter.hit_multi_snoops            0                       # Number of snoops hitting in the snoop filter with multiple (>1) holders of the requested data.
system.tol2bus.snoop_filter.hit_single_requests       296541                       # Number of requests hitting in the snoop filter with a single holder of the requested data.
system.tol2bus.snoop_filter.hit_single_snoops       109576                       # Number of snoops hitting in the snoop filter with a single holder of the requested data.
system.tol2bus.snoop_filter.tot_requests       594158                       # Total number of requests made to the snoop filter.
system.tol2bus.snoop_filter.tot_snoops         109576                       # Total number of snoops made to the snoop filter.
system.membus.pwrStateResidencyTicks::UNDEFINED 926049899490000                       # Cumulative time (in ticks) in various power states
system.membus.trans_dist::ReadResp             166483                       # Transaction distribution
system.membus.trans_dist::WritebackDirty         6021                       # Transaction distribution
system.membus.trans_dist::CleanEvict           156134                       # Transaction distribution
system.membus.trans_dist::ReadExReq                 7                       # Transaction distribution
system.membus.trans_dist::ReadExResp                7                       # Transaction distribution
system.membus.trans_dist::ReadSharedReq        166483                       # Transaction distribution
system.membus.pkt_count_system.l2.mem_side::system.mem_ctrls.port       495135                       # Packet count per connected master and slave (bytes)
system.membus.pkt_count_system.l2.mem_side::total       495135                       # Packet count per connected master and slave (bytes)
system.membus.pkt_count::total                 495135                       # Packet count per connected master and slave (bytes)
system.membus.pkt_size_system.l2.mem_side::system.mem_ctrls.port     11040704                       # Cumulative packet size per connected master and slave (bytes)
system.membus.pkt_size_system.l2.mem_side::total     11040704                       # Cumulative packet size per connected master and slave (bytes)
system.membus.pkt_size::total                11040704                       # Cumulative packet size per connected master and slave (bytes)
system.membus.snoops                                0                       # Total snoops (count)
system.membus.snoopTraffic                          0                       # Total snoop traffic (bytes)
system.membus.snoop_fanout::samples            166490                       # Request fanout histogram
system.membus.snoop_fanout::mean                    0                       # Request fanout histogram
system.membus.snoop_fanout::stdev                   0                       # Request fanout histogram
system.membus.snoop_fanout::underflows              0      0.00%      0.00% # Request fanout histogram
system.membus.snoop_fanout::0                  166490    100.00%    100.00% # Request fanout histogram
system.membus.snoop_fanout::1                       0      0.00%    100.00% # Request fanout histogram
system.membus.snoop_fanout::overflows               0      0.00%    100.00% # Request fanout histogram
system.membus.snoop_fanout::min_value               0                       # Request fanout histogram
system.membus.snoop_fanout::max_value               0                       # Request fanout histogram
system.membus.snoop_fanout::total              166490                       # Request fanout histogram
system.membus.reqLayer2.occupancy           391900441                       # Layer occupancy (ticks)
system.membus.reqLayer2.utilization               3.8                       # Layer utilization (%)
system.membus.respLayer1.occupancy          894764966                       # Layer occupancy (ticks)
system.membus.respLayer1.utilization              8.7                       # Layer utilization (%)
system.switch_cpus.pwrStateResidencyTicks::OFF  10296207500                       # Cumulative time (in ticks) in various power states
system.switch_cpus.dtb.walker.pwrStateResidencyTicks::UNDEFINED 926049899490000                       # Cumulative time (in ticks) in various power states
system.switch_cpus.itb.walker.pwrStateResidencyTicks::UNDEFINED 926049899490000                       # Cumulative time (in ticks) in various power states
system.tol2bus.pwrStateResidencyTicks::UNDEFINED 926049899490000                       # Cumulative time (in ticks) in various power states
system.tol2bus.trans_dist::ReadResp            297063                       # Transaction distribution
system.tol2bus.trans_dist::WritebackDirty        23135                       # Transaction distribution
system.tol2bus.trans_dist::CleanEvict          439597                       # Transaction distribution
system.tol2bus.trans_dist::HardPFReq             4040                       # Transaction distribution
system.tol2bus.trans_dist::ReadExReq              554                       # Transaction distribution
system.tol2bus.trans_dist::ReadExResp             554                       # Transaction distribution
system.tol2bus.trans_dist::ReadCleanReq            52                       # Transaction distribution
system.tol2bus.trans_dist::ReadSharedReq       297011                       # Transaction distribution
system.tol2bus.pkt_count_system.cpu.icache.mem_side::system.l2.cpu_side          104                       # Packet count per connected master and slave (bytes)
system.tol2bus.pkt_count_system.cpu.dcache.mem_side::system.l2.cpu_side       891671                       # Packet count per connected master and slave (bytes)
system.tol2bus.pkt_count::total                891775                       # Packet count per connected master and slave (bytes)
system.tol2bus.pkt_size_system.cpu.icache.mem_side::system.l2.cpu_side         3328                       # Cumulative packet size per connected master and slave (bytes)
system.tol2bus.pkt_size_system.cpu.dcache.mem_side::system.l2.cpu_side     20139456                       # Cumulative packet size per connected master and slave (bytes)
system.tol2bus.pkt_size::total               20142784                       # Cumulative packet size per connected master and slave (bytes)
system.tol2bus.snoops                          170231                       # Total snoops (count)
system.tol2bus.snoopTraffic                    385344                       # Total snoop traffic (bytes)
system.tol2bus.snoop_fanout::samples           467848                       # Request fanout histogram
system.tol2bus.snoop_fanout::mean            0.234213                       # Request fanout histogram
system.tol2bus.snoop_fanout::stdev           0.423506                       # Request fanout histogram
system.tol2bus.snoop_fanout::underflows             0      0.00%      0.00% # Request fanout histogram
system.tol2bus.snoop_fanout::0                 358272     76.58%     76.58% # Request fanout histogram
system.tol2bus.snoop_fanout::1                 109576     23.42%    100.00% # Request fanout histogram
system.tol2bus.snoop_fanout::2                      0      0.00%    100.00% # Request fanout histogram
system.tol2bus.snoop_fanout::3                      0      0.00%    100.00% # Request fanout histogram
system.tol2bus.snoop_fanout::4                      0      0.00%    100.00% # Request fanout histogram
system.tol2bus.snoop_fanout::overflows              0      0.00%    100.00% # Request fanout histogram
system.tol2bus.snoop_fanout::min_value              0                       # Request fanout histogram
system.tol2bus.snoop_fanout::max_value              1                       # Request fanout histogram
system.tol2bus.snoop_fanout::total             467848                       # Request fanout histogram
system.tol2bus.reqLayer0.occupancy          314191000                       # Layer occupancy (ticks)
system.tol2bus.reqLayer0.utilization              3.1                       # Layer utilization (%)
system.tol2bus.respLayer1.occupancy         446344500                       # Layer occupancy (ticks)
system.tol2bus.respLayer1.utilization             4.3                       # Layer utilization (%)
system.tol2bus.respLayer0.occupancy             75000                       # Layer occupancy (ticks)
system.tol2bus.respLayer0.utilization             0.0                       # Layer utilization (%)
system.voltage_domain.voltage                       1                       # Voltage in Volts
system.clk_domain.clock                          1000                       # Clock period in ticks
system.l2.pwrStateResidencyTicks::UNDEFINED 926049899490000                       # Cumulative time (in ticks) in various power states
system.l2.demand_hits::.switch_cpus.data       133433                       # number of demand (read+write) hits
system.l2.demand_hits::total                   133433                       # number of demand (read+write) hits
system.l2.overall_hits::.switch_cpus.data       133433                       # number of overall hits
system.l2.overall_hits::total                  133433                       # number of overall hits
system.l2.demand_misses::.cpu.inst                  2                       # number of demand (read+write) misses
system.l2.demand_misses::.cpu.data                  2                       # number of demand (read+write) misses
system.l2.demand_misses::.switch_cpus.inst           50                       # number of demand (read+write) misses
system.l2.demand_misses::.switch_cpus.data       164130                       # number of demand (read+write) misses
system.l2.demand_misses::total                 164184                       # number of demand (read+write) misses
system.l2.overall_misses::.cpu.inst                 2                       # number of overall misses
system.l2.overall_misses::.cpu.data                 2                       # number of overall misses
system.l2.overall_misses::.switch_cpus.inst           50                       # number of overall misses
system.l2.overall_misses::.switch_cpus.data       164130                       # number of overall misses
system.l2.overall_misses::total                164184                       # number of overall misses
system.l2.demand_miss_latency::.switch_cpus.inst      4159000                       # number of demand (read+write) miss cycles
system.l2.demand_miss_latency::.switch_cpus.data  14622630000                       # number of demand (read+write) miss cycles
system.l2.demand_miss_latency::total      14626789000                       # number of demand (read+write) miss cycles
system.l2.overall_miss_latency::.switch_cpus.inst      4159000                       # number of overall miss cycles
system.l2.overall_miss_latency::.switch_cpus.data  14622630000                       # number of overall miss cycles
system.l2.overall_miss_latency::total     14626789000                       # number of overall miss cycles
system.l2.demand_accesses::.cpu.inst                2                       # number of demand (read+write) accesses
system.l2.demand_accesses::.cpu.data                2                       # number of demand (read+write) accesses
system.l2.demand_accesses::.switch_cpus.inst           50                       # number of demand (read+write) accesses
system.l2.demand_accesses::.switch_cpus.data       297563                       # number of demand (read+write) accesses
system.l2.demand_accesses::total               297617                       # number of demand (read+write) accesses
system.l2.overall_accesses::.cpu.inst               2                       # number of overall (read+write) accesses
system.l2.overall_accesses::.cpu.data               2                       # number of overall (read+write) accesses
system.l2.overall_accesses::.switch_cpus.inst           50                       # number of overall (read+write) accesses
system.l2.overall_accesses::.switch_cpus.data       297563                       # number of overall (read+write) accesses
system.l2.overall_accesses::total              297617                       # number of overall (read+write) accesses
system.l2.demand_miss_rate::.cpu.inst               1                       # miss rate for demand accesses
system.l2.demand_miss_rate::.cpu.data               1                       # miss rate for demand accesses
system.l2.demand_miss_rate::.switch_cpus.inst            1                       # miss rate for demand accesses
system.l2.demand_miss_rate::.switch_cpus.data     0.551581                       # miss rate for demand accesses
system.l2.demand_miss_rate::total            0.551662                       # miss rate for demand accesses
system.l2.overall_miss_rate::.cpu.inst              1                       # miss rate for overall accesses
system.l2.overall_miss_rate::.cpu.data              1                       # miss rate for overall accesses
system.l2.overall_miss_rate::.switch_cpus.inst            1                       # miss rate for overall accesses
system.l2.overall_miss_rate::.switch_cpus.data     0.551581                       # miss rate for overall accesses
system.l2.overall_miss_rate::total           0.551662                       # miss rate for overall accesses
system.l2.demand_avg_miss_latency::.switch_cpus.inst        83180                       # average overall miss latency
system.l2.demand_avg_miss_latency::.switch_cpus.data 89091.756534                       # average overall miss latency
system.l2.demand_avg_miss_latency::total 89087.785655                       # average overall miss latency
system.l2.overall_avg_miss_latency::.switch_cpus.inst        83180                       # average overall miss latency
system.l2.overall_avg_miss_latency::.switch_cpus.data 89091.756534                       # average overall miss latency
system.l2.overall_avg_miss_latency::total 89087.785655                       # average overall miss latency
system.l2.blocked_cycles::no_mshrs                  0                       # number of cycles access was blocked
system.l2.blocked_cycles::no_targets                0                       # number of cycles access was blocked
system.l2.blocked::no_mshrs                         0                       # number of cycles access was blocked
system.l2.blocked::no_targets                       0                       # number of cycles access was blocked
system.l2.avg_blocked_cycles::no_mshrs            nan                       # average number of cycles each access was blocked
system.l2.avg_blocked_cycles::no_targets          nan                       # average number of cycles each access was blocked
system.l2.unused_prefetches                       238                       # number of HardPF blocks evicted w/o reference
system.l2.writebacks::.writebacks                6021                       # number of writebacks
system.l2.writebacks::total                      6021                       # number of writebacks
system.l2.demand_mshr_hits::.switch_cpus.data            1                       # number of demand (read+write) MSHR hits
system.l2.demand_mshr_hits::total                   1                       # number of demand (read+write) MSHR hits
system.l2.overall_mshr_hits::.switch_cpus.data            1                       # number of overall MSHR hits
system.l2.overall_mshr_hits::total                  1                       # number of overall MSHR hits
system.l2.demand_mshr_misses::.switch_cpus.inst           50                       # number of demand (read+write) MSHR misses
system.l2.demand_mshr_misses::.switch_cpus.data       164129                       # number of demand (read+write) MSHR misses
system.l2.demand_mshr_misses::total            164179                       # number of demand (read+write) MSHR misses
system.l2.overall_mshr_misses::.l2.prefetcher         2315                       # number of overall MSHR misses
system.l2.overall_mshr_misses::.switch_cpus.inst           50                       # number of overall MSHR misses
system.l2.overall_mshr_misses::.switch_cpus.data       164129                       # number of overall MSHR misses
system.l2.overall_mshr_misses::total           166494                       # number of overall MSHR misses
system.l2.demand_mshr_miss_latency::.switch_cpus.inst      3659000                       # number of demand (read+write) MSHR miss cycles
system.l2.demand_mshr_miss_latency::.switch_cpus.data  12981325000                       # number of demand (read+write) MSHR miss cycles
system.l2.demand_mshr_miss_latency::total  12984984000                       # number of demand (read+write) MSHR miss cycles
system.l2.overall_mshr_miss_latency::.l2.prefetcher    164286160                       # number of overall MSHR miss cycles
system.l2.overall_mshr_miss_latency::.switch_cpus.inst      3659000                       # number of overall MSHR miss cycles
system.l2.overall_mshr_miss_latency::.switch_cpus.data  12981325000                       # number of overall MSHR miss cycles
system.l2.overall_mshr_miss_latency::total  13149270160                       # number of overall MSHR miss cycles
system.l2.demand_mshr_miss_rate::.switch_cpus.inst            1                       # mshr miss rate for demand accesses
system.l2.demand_mshr_miss_rate::.switch_cpus.data     0.551577                       # mshr miss rate for demand accesses
system.l2.demand_mshr_miss_rate::total       0.551645                       # mshr miss rate for demand accesses
system.l2.overall_mshr_miss_rate::.l2.prefetcher          inf                       # mshr miss rate for overall accesses
system.l2.overall_mshr_miss_rate::.switch_cpus.inst            1                       # mshr miss rate for overall accesses
system.l2.overall_mshr_miss_rate::.switch_cpus.data     0.551577                       # mshr miss rate for overall accesses
system.l2.overall_mshr_miss_rate::total      0.559424                       # mshr miss rate for overall accesses
system.l2.demand_avg_mshr_miss_latency::.switch_cpus.inst        73180                       # average overall mshr miss latency
system.l2.demand_avg_mshr_miss_latency::.switch_cpus.data 79092.207958                       # average overall mshr miss latency
system.l2.demand_avg_mshr_miss_latency::total 79090.407421                       # average overall mshr miss latency
system.l2.overall_avg_mshr_miss_latency::.l2.prefetcher 70965.943844                       # average overall mshr miss latency
system.l2.overall_avg_mshr_miss_latency::.switch_cpus.inst        73180                       # average overall mshr miss latency
system.l2.overall_avg_mshr_miss_latency::.switch_cpus.data 79092.207958                       # average overall mshr miss latency
system.l2.overall_avg_mshr_miss_latency::total 78977.441589                       # average overall mshr miss latency
system.l2.replacements                         166191                       # number of replacements
system.l2.WritebackDirty_hits::.writebacks        17114                       # number of WritebackDirty hits
system.l2.WritebackDirty_hits::total            17114                       # number of WritebackDirty hits
system.l2.WritebackDirty_accesses::.writebacks        17114                       # number of WritebackDirty accesses(hits+misses)
system.l2.WritebackDirty_accesses::total        17114                       # number of WritebackDirty accesses(hits+misses)
system.l2.CleanEvict_mshr_misses::.writebacks       105533                       # number of CleanEvict MSHR misses
system.l2.CleanEvict_mshr_misses::total        105533                       # number of CleanEvict MSHR misses
system.l2.CleanEvict_mshr_miss_rate::.writebacks          inf                       # mshr miss rate for CleanEvict accesses
system.l2.CleanEvict_mshr_miss_rate::total          inf                       # mshr miss rate for CleanEvict accesses
system.l2.HardPFReq_mshr_misses::.l2.prefetcher         2315                       # number of HardPFReq MSHR misses
system.l2.HardPFReq_mshr_misses::total           2315                       # number of HardPFReq MSHR misses
system.l2.HardPFReq_mshr_miss_latency::.l2.prefetcher    164286160                       # number of HardPFReq MSHR miss cycles
system.l2.HardPFReq_mshr_miss_latency::total    164286160                       # number of HardPFReq MSHR miss cycles
system.l2.HardPFReq_mshr_miss_rate::.l2.prefetcher          inf                       # mshr miss rate for HardPFReq accesses
system.l2.HardPFReq_mshr_miss_rate::total          inf                       # mshr miss rate for HardPFReq accesses
system.l2.HardPFReq_avg_mshr_miss_latency::.l2.prefetcher 70965.943844                       # average HardPFReq mshr miss latency
system.l2.HardPFReq_avg_mshr_miss_latency::total 70965.943844                       # average HardPFReq mshr miss latency
system.l2.ReadExReq_hits::.switch_cpus.data          547                       # number of ReadExReq hits
system.l2.ReadExReq_hits::total                   547                       # number of ReadExReq hits
system.l2.ReadExReq_misses::.switch_cpus.data            7                       # number of ReadExReq misses
system.l2.ReadExReq_misses::total                   7                       # number of ReadExReq misses
system.l2.ReadExReq_miss_latency::.switch_cpus.data       428500                       # number of ReadExReq miss cycles
system.l2.ReadExReq_miss_latency::total        428500                       # number of ReadExReq miss cycles
system.l2.ReadExReq_accesses::.switch_cpus.data          554                       # number of ReadExReq accesses(hits+misses)
system.l2.ReadExReq_accesses::total               554                       # number of ReadExReq accesses(hits+misses)
system.l2.ReadExReq_miss_rate::.switch_cpus.data     0.012635                       # miss rate for ReadExReq accesses
system.l2.ReadExReq_miss_rate::total         0.012635                       # miss rate for ReadExReq accesses
system.l2.ReadExReq_avg_miss_latency::.switch_cpus.data 61214.285714                       # average ReadExReq miss latency
system.l2.ReadExReq_avg_miss_latency::total 61214.285714                       # average ReadExReq miss latency
system.l2.ReadExReq_mshr_misses::.switch_cpus.data            7                       # number of ReadExReq MSHR misses
system.l2.ReadExReq_mshr_misses::total              7                       # number of ReadExReq MSHR misses
system.l2.ReadExReq_mshr_miss_latency::.switch_cpus.data       358500                       # number of ReadExReq MSHR miss cycles
system.l2.ReadExReq_mshr_miss_latency::total       358500                       # number of ReadExReq MSHR miss cycles
system.l2.ReadExReq_mshr_miss_rate::.switch_cpus.data     0.012635                       # mshr miss rate for ReadExReq accesses
system.l2.ReadExReq_mshr_miss_rate::total     0.012635                       # mshr miss rate for ReadExReq accesses
system.l2.ReadExReq_avg_mshr_miss_latency::.switch_cpus.data 51214.285714                       # average ReadExReq mshr miss latency
system.l2.ReadExReq_avg_mshr_miss_latency::total 51214.285714                       # average ReadExReq mshr miss latency
system.l2.ReadCleanReq_misses::.cpu.inst            2                       # number of ReadCleanReq misses
[...]
system.cpu.icache.tags.occ_task_id_percent::1024     0.113281                       # Percentage of cache occupancy per task id
system.cpu.icache.tags.tag_accesses          30420576                       # Number of tag accesses
system.cpu.icache.tags.data_accesses         30420576                       # Number of data accesses
system.cpu.dtb.walker.pwrStateResidencyTicks::UNDEFINED 926118671674500                       # Cumulative time (in ticks) in various power states
system.cpu.interrupts.clk_domain.clock           8000                       # Clock period in ticks
system.cpu.itb_walker_cache.pwrStateResidencyTicks::UNDEFINED 926118671674500                       # Cumulative time (in ticks) in various power states
system.cpu.itb_walker_cache.blocked_cycles::no_mshrs            0                       # number of cycles access was blocked
system.cpu.itb_walker_cache.blocked_cycles::no_targets            0                       # number of cycles access was blocked
system.cpu.itb_walker_cache.blocked::no_mshrs            0                       # number of cycles access was blocked
system.cpu.itb_walker_cache.blocked::no_targets            0                       # number of cycles access was blocked
system.cpu.itb_walker_cache.avg_blocked_cycles::no_mshrs          nan                       # average number of cycles each access was blocked
system.cpu.itb_walker_cache.avg_blocked_cycles::no_targets          nan                       # average number of cycles each access was blocked
system.cpu.itb_walker_cache.replacements            0                       # number of replacements
system.cpu.itb_walker_cache.tags.pwrStateResidencyTicks::UNDEFINED 926118671674500                       # Cumulative time (in ticks) in various power states
system.cpu.itb_walker_cache.tags.tagsinuse            0                       # Cycle average of tags in use
system.cpu.itb_walker_cache.tags.total_refs            0                       # Total number of references to valid blocks.
system.cpu.itb_walker_cache.tags.sampled_refs            0                       # Sample count of references to valid blocks.
system.cpu.itb_walker_cache.tags.avg_refs          nan                       # Average number of references to valid blocks.
system.cpu.itb_walker_cache.tags.warmup_cycle            0                       # Cycle when the warmup percentage was hit.
system.cpu.itb_walker_cache.tags.tag_accesses            0                       # Number of tag accesses
system.cpu.itb_walker_cache.tags.data_accesses            0                       # Number of data accesses
system.cpu.itb.walker.pwrStateResidencyTicks::UNDEFINED 926118671674500                       # Cumulative time (in ticks) in various power states
system.cpu.dtb_walker_cache.pwrStateResidencyTicks::UNDEFINED 926118671674500                       # Cumulative time (in ticks) in various power states
system.cpu.dtb_walker_cache.blocked_cycles::no_mshrs            0                       # number of cycles access was blocked
system.cpu.dtb_walker_cache.blocked_cycles::no_targets            0                       # number of cycles access was blocked
system.cpu.dtb_walker_cache.blocked::no_mshrs            0                       # number of cycles access was blocked
system.cpu.dtb_walker_cache.blocked::no_targets            0                       # number of cycles access was blocked
system.cpu.dtb_walker_cache.avg_blocked_cycles::no_mshrs          nan                       # average number of cycles each access was blocked
system.cpu.dtb_walker_cache.avg_blocked_cycles::no_targets          nan                       # average number of cycles each access was blocked
system.cpu.dtb_walker_cache.replacements            0                       # number of replacements
system.cpu.dtb_walker_cache.tags.pwrStateResidencyTicks::UNDEFINED 926118671674500                       # Cumulative time (in ticks) in various power states
system.cpu.dtb_walker_cache.tags.tagsinuse            0                       # Cycle average of tags in use
system.cpu.dtb_walker_cache.tags.total_refs            0                       # Total number of references to valid blocks.
system.cpu.dtb_walker_cache.tags.sampled_refs            0                       # Sample count of references to valid blocks.
system.cpu.dtb_walker_cache.tags.avg_refs          nan                       # Average number of references to valid blocks.
system.cpu.dtb_walker_cache.tags.warmup_cycle            0                       # Cycle when the warmup percentage was hit.
system.cpu.dtb_walker_cache.tags.tag_accesses            0                       # Number of tag accesses
system.cpu.dtb_walker_cache.tags.data_accesses            0                       # Number of data accesses
system.cpu.dcache.pwrStateResidencyTicks::UNDEFINED 926118671674500                       # Cumulative time (in ticks) in various power states
system.cpu.dcache.demand_hits::.switch_cpus.data     12318125                       # number of demand (read+write) hits
system.cpu.dcache.demand_hits::total         12318125                       # number of demand (read+write) hits
system.cpu.dcache.overall_hits::.switch_cpus.data     12318125                       # number of overall hits
system.cpu.dcache.overall_hits::total        12318125                       # number of overall hits
system.cpu.dcache.demand_misses::.cpu.data            2                       # number of demand (read+write) misses
system.cpu.dcache.demand_misses::.switch_cpus.data      1598520                       # number of demand (read+write) misses
system.cpu.dcache.demand_misses::total        1598522                       # number of demand (read+write) misses
system.cpu.dcache.overall_misses::.cpu.data            2                       # number of overall misses
system.cpu.dcache.overall_misses::.switch_cpus.data      1598520                       # number of overall misses
system.cpu.dcache.overall_misses::total       1598522                       # number of overall misses
system.cpu.dcache.demand_miss_latency::.switch_cpus.data 111083362496                       # number of demand (read+write) miss cycles
system.cpu.dcache.demand_miss_latency::total 111083362496                       # number of demand (read+write) miss cycles
system.cpu.dcache.overall_miss_latency::.switch_cpus.data 111083362496                       # number of overall miss cycles
system.cpu.dcache.overall_miss_latency::total 111083362496                       # number of overall miss cycles
system.cpu.dcache.demand_accesses::.cpu.data            2                       # number of demand (read+write) accesses
system.cpu.dcache.demand_accesses::.switch_cpus.data     13916645                       # number of demand (read+write) accesses
system.cpu.dcache.demand_accesses::total     13916647                       # number of demand (read+write) accesses
system.cpu.dcache.overall_accesses::.cpu.data            2                       # number of overall (read+write) accesses
system.cpu.dcache.overall_accesses::.switch_cpus.data     13916645                       # number of overall (read+write) accesses
system.cpu.dcache.overall_accesses::total     13916647                       # number of overall (read+write) accesses
system.cpu.dcache.demand_miss_rate::.cpu.data            1                       # miss rate for demand accesses
system.cpu.dcache.demand_miss_rate::.switch_cpus.data     0.114864                       # miss rate for demand accesses
system.cpu.dcache.demand_miss_rate::total     0.114864                       # miss rate for demand accesses
system.cpu.dcache.overall_miss_rate::.cpu.data            1                       # miss rate for overall accesses
system.cpu.dcache.overall_miss_rate::.switch_cpus.data     0.114864                       # miss rate for overall accesses
system.cpu.dcache.overall_miss_rate::total     0.114864                       # miss rate for overall accesses
system.cpu.dcache.demand_avg_miss_latency::.switch_cpus.data 69491.381088                       # average overall miss latency
system.cpu.dcache.demand_avg_miss_latency::total 69491.294143                       # average overall miss latency
system.cpu.dcache.overall_avg_miss_latency::.switch_cpus.data 69491.381088                       # average overall miss latency
system.cpu.dcache.overall_avg_miss_latency::total 69491.294143                       # average overall miss latency
system.cpu.dcache.blocked_cycles::no_mshrs     13747755                       # number of cycles access was blocked
system.cpu.dcache.blocked_cycles::no_targets         2908                       # number of cycles access was blocked
system.cpu.dcache.blocked::no_mshrs            367155                       # number of cycles access was blocked
system.cpu.dcache.blocked::no_targets              60                       # number of cycles access was blocked
system.cpu.dcache.avg_blocked_cycles::no_mshrs    37.444009                       # average number of cycles each access was blocked
system.cpu.dcache.avg_blocked_cycles::no_targets    48.466667                       # average number of cycles each access was blocked
system.cpu.dcache.writebacks::.writebacks       531696                       # number of writebacks
system.cpu.dcache.writebacks::total            531696                       # number of writebacks
system.cpu.dcache.demand_mshr_hits::.switch_cpus.data       299496                       # number of demand (read+write) MSHR hits
system.cpu.dcache.demand_mshr_hits::total       299496                       # number of demand (read+write) MSHR hits
system.cpu.dcache.overall_mshr_hits::.switch_cpus.data       299496                       # number of overall MSHR hits
system.cpu.dcache.overall_mshr_hits::total       299496                       # number of overall MSHR hits
system.cpu.dcache.demand_mshr_misses::.switch_cpus.data      1299024                       # number of demand (read+write) MSHR misses
system.cpu.dcache.demand_mshr_misses::total      1299024                       # number of demand (read+write) MSHR misses
system.cpu.dcache.overall_mshr_misses::.switch_cpus.data      1299024                       # number of overall MSHR misses
system.cpu.dcache.overall_mshr_misses::total      1299024                       # number of overall MSHR misses
system.cpu.dcache.demand_mshr_miss_latency::.switch_cpus.data  96755865996                       # number of demand (read+write) MSHR miss cycles
system.cpu.dcache.demand_mshr_miss_latency::total  96755865996                       # number of demand (read+write) MSHR miss cycles
system.cpu.dcache.overall_mshr_miss_latency::.switch_cpus.data  96755865996                       # number of overall MSHR miss cycles
system.cpu.dcache.overall_mshr_miss_latency::total  96755865996                       # number of overall MSHR miss cycles
system.cpu.dcache.demand_mshr_miss_rate::.switch_cpus.data     0.093343                       # mshr miss rate for demand accesses
system.cpu.dcache.demand_mshr_miss_rate::total     0.093343                       # mshr miss rate for demand accesses
system.cpu.dcache.overall_mshr_miss_rate::.switch_cpus.data     0.093343                       # mshr miss rate for overall accesses
system.cpu.dcache.overall_mshr_miss_rate::total     0.093343                       # mshr miss rate for overall accesses
system.cpu.dcache.demand_avg_mshr_miss_latency::.switch_cpus.data 74483.509155                       # average overall mshr miss latency
system.cpu.dcache.demand_avg_mshr_miss_latency::total 74483.509155                       # average overall mshr miss latency
system.cpu.dcache.overall_avg_mshr_miss_latency::.switch_cpus.data 74483.509155                       # average overall mshr miss latency
system.cpu.dcache.overall_avg_mshr_miss_latency::total 74483.509155                       # average overall mshr miss latency
system.cpu.dcache.replacements                1298002                       # number of replacements
system.cpu.dcache.ReadReq_hits::.switch_cpus.data     10317525                       # number of ReadReq hits
system.cpu.dcache.ReadReq_hits::total        10317525                       # number of ReadReq hits
system.cpu.dcache.ReadReq_misses::.cpu.data            2                       # number of ReadReq misses
system.cpu.dcache.ReadReq_misses::.switch_cpus.data      1113391                       # number of ReadReq misses
system.cpu.dcache.ReadReq_misses::total       1113393                       # number of ReadReq misses
system.cpu.dcache.ReadReq_miss_latency::.switch_cpus.data  65770324000                       # number of ReadReq miss cycles
system.cpu.dcache.ReadReq_miss_latency::total  65770324000                       # number of ReadReq miss cycles
system.cpu.dcache.ReadReq_accesses::.cpu.data            2                       # number of ReadReq accesses(hits+misses)
system.cpu.dcache.ReadReq_accesses::.switch_cpus.data     11430916                       # number of ReadReq accesses(hits+misses)
system.cpu.dcache.ReadReq_accesses::total     11430918                       # number of ReadReq accesses(hits+misses)
system.cpu.dcache.ReadReq_miss_rate::.cpu.data            1                       # miss rate for ReadReq accesses
system.cpu.dcache.ReadReq_miss_rate::.switch_cpus.data     0.097402                       # miss rate for ReadReq accesses
system.cpu.dcache.ReadReq_miss_rate::total     0.097402                       # miss rate for ReadReq accesses
system.cpu.dcache.ReadReq_avg_miss_latency::.switch_cpus.data 59072.081596                       # average ReadReq miss latency
system.cpu.dcache.ReadReq_avg_miss_latency::total 59071.975484                       # average ReadReq miss latency
system.cpu.dcache.ReadReq_mshr_hits::.switch_cpus.data       299494                       # number of ReadReq MSHR hits
system.cpu.dcache.ReadReq_mshr_hits::total       299494                       # number of ReadReq MSHR hits
system.cpu.dcache.ReadReq_mshr_misses::.switch_cpus.data       813897                       # number of ReadReq MSHR misses
system.cpu.dcache.ReadReq_mshr_misses::total       813897                       # number of ReadReq MSHR misses
system.cpu.dcache.ReadReq_mshr_miss_latency::.switch_cpus.data  51927964000                       # number of ReadReq MSHR miss cycles
system.cpu.dcache.ReadReq_mshr_miss_latency::total  51927964000                       # number of ReadReq MSHR miss cycles
system.cpu.dcache.ReadReq_mshr_miss_rate::.switch_cpus.data     0.071201                       # mshr miss rate for ReadReq accesses
system.cpu.dcache.ReadReq_mshr_miss_rate::total     0.071201                       # mshr miss rate for ReadReq accesses
system.cpu.dcache.ReadReq_avg_mshr_miss_latency::.switch_cpus.data 63801.640748                       # average ReadReq mshr miss latency
system.cpu.dcache.ReadReq_avg_mshr_miss_latency::total 63801.640748                       # average ReadReq mshr miss latency
system.cpu.dcache.WriteReq_hits::.switch_cpus.data      2000600                       # number of WriteReq hits
system.cpu.dcache.WriteReq_hits::total        2000600                       # number of WriteReq hits
system.cpu.dcache.WriteReq_misses::.switch_cpus.data       485129                       # number of WriteReq misses
system.cpu.dcache.WriteReq_misses::total       485129                       # number of WriteReq misses
system.cpu.dcache.WriteReq_miss_latency::.switch_cpus.data  45313038496                       # number of WriteReq miss cycles
system.cpu.dcache.WriteReq_miss_latency::total  45313038496                       # number of WriteReq miss cycles
system.cpu.dcache.WriteReq_accesses::.switch_cpus.data      2485729                       # number of WriteReq accesses(hits+misses)
system.cpu.dcache.WriteReq_accesses::total      2485729                       # number of WriteReq accesses(hits+misses)
system.cpu.dcache.WriteReq_miss_rate::.switch_cpus.data     0.195166                       # miss rate for WriteReq accesses
system.cpu.dcache.WriteReq_miss_rate::total     0.195166                       # miss rate for WriteReq accesses
system.cpu.dcache.WriteReq_avg_miss_latency::.switch_cpus.data 93404.101787                       # average WriteReq miss latency
system.cpu.dcache.WriteReq_avg_miss_latency::total 93404.101787                       # average WriteReq miss latency
system.cpu.dcache.WriteReq_mshr_hits::.switch_cpus.data            2                       # number of WriteReq MSHR hits
system.cpu.dcache.WriteReq_mshr_hits::total            2                       # number of WriteReq MSHR hits
system.cpu.dcache.WriteReq_mshr_misses::.switch_cpus.data       485127                       # number of WriteReq MSHR misses
system.cpu.dcache.WriteReq_mshr_misses::total       485127                       # number of WriteReq MSHR misses
system.cpu.dcache.WriteReq_mshr_miss_latency::.switch_cpus.data  44827901996                       # number of WriteReq MSHR miss cycles
system.cpu.dcache.WriteReq_mshr_miss_latency::total  44827901996                       # number of WriteReq MSHR miss cycles
system.cpu.dcache.WriteReq_mshr_miss_rate::.switch_cpus.data     0.195165                       # mshr miss rate for WriteReq accesses
system.cpu.dcache.WriteReq_mshr_miss_rate::total     0.195165                       # mshr miss rate for WriteReq accesses
system.cpu.dcache.WriteReq_avg_mshr_miss_latency::.switch_cpus.data 92404.467276                       # average WriteReq mshr miss latency
system.cpu.dcache.WriteReq_avg_mshr_miss_latency::total 92404.467276                       # average WriteReq mshr miss latency
system.cpu.dcache.tags.pwrStateResidencyTicks::UNDEFINED 926118671674500                       # Cumulative time (in ticks) in various power states
system.cpu.dcache.tags.tagsinuse             0.087381                       # Cycle average of tags in use
system.cpu.dcache.tags.total_refs            13617151                       # Total number of references to valid blocks.
system.cpu.dcache.tags.sampled_refs           1299026                       # Sample count of references to valid blocks.
system.cpu.dcache.tags.avg_refs             10.482585                       # Average number of references to valid blocks.
system.cpu.dcache.tags.warmup_cycle      926039603283000                       # Cycle when the warmup percentage was hit.
system.cpu.dcache.tags.occ_blocks::.cpu.data     0.000000                       # Average occupied blocks per requestor
system.cpu.dcache.tags.occ_blocks::.switch_cpus.data     0.087381                       # Average occupied blocks per requestor
system.cpu.dcache.tags.occ_percent::.cpu.data     0.000000                       # Average percentage of cache occupancy
system.cpu.dcache.tags.occ_percent::.switch_cpus.data     0.000085                       # Average percentage of cache occupancy
system.cpu.dcache.tags.occ_percent::total     0.000085                       # Average percentage of cache occupancy
system.cpu.dcache.tags.occ_task_id_blocks::1024         1024                       # Occupied blocks per task id
system.cpu.dcache.tags.age_task_id_blocks_1024::0          134                       # Occupied blocks per task id
system.cpu.dcache.tags.age_task_id_blocks_1024::1          718                       # Occupied blocks per task id
system.cpu.dcache.tags.age_task_id_blocks_1024::2          168                       # Occupied blocks per task id
system.cpu.dcache.tags.age_task_id_blocks_1024::3            4                       # Occupied blocks per task id
system.cpu.dcache.tags.occ_task_id_percent::1024            1                       # Percentage of cache occupancy per task id
system.cpu.dcache.tags.tag_accesses          29132320                       # Number of tag accesses
system.cpu.dcache.tags.data_accesses         29132320                       # Number of data accesses

---------- End Simulation Statistics   ----------
