
---------- Begin Simulation Statistics ----------
final_tick                               70892824465500                       # Number of ticks from beginning of simulation (restored from checkpoints and never reset)
host_inst_rate                                  54595                       # Simulator instruction rate (inst/s)
host_mem_usage                                 792432                       # Number of bytes of host memory used
host_op_rate                                    87507                       # Simulator op (including micro ops) rate (op/s)
host_seconds                                   183.17                       # Real time elapsed on the host
host_tick_rate                               14277561                       # Simulator tick rate (ticks/s)
sim_freq                                 1000000000000                       # Frequency of simulated ticks
sim_insts                                    10000010                       # Number of instructions simulated
sim_ops                                      16028373                       # Number of ops (including micro ops) simulated
sim_seconds                                  0.002615                       # Number of seconds simulated
sim_ticks                                  2615189250                       # Number of ticks simulated
system.cpu.committedInsts                          10                       # Number of instructions committed
system.cpu.committedOps                            14                       # Number of ops (including micro ops) committed
system.cpu.dtb.rdAccesses                           5                       # TLB accesses on read requests
system.cpu.dtb.rdMisses                             0                       # TLB misses on read requests
system.cpu.dtb.wrAccesses                           2                       # TLB accesses on write requests
system.cpu.dtb.wrMisses                             0                       # TLB misses on write requests
system.cpu.idle_fraction                            0                       # Percentage of idle cycles
system.cpu.itb.rdAccesses                           0                       # TLB accesses on read requests
system.cpu.itb.rdMisses                             0                       # TLB misses on read requests
system.cpu.itb.wrAccesses                          15                       # TLB accesses on write requests
system.cpu.itb.wrMisses                             0                       # TLB misses on write requests
system.cpu.not_idle_fraction                        1                       # Percentage of non-idle cycles
system.cpu.numCycles                               19                       # number of cpu cycles simulated
system.cpu.numWorkItemsCompleted                    0                       # number of work items this cpu completed
system.cpu.numWorkItemsStarted                      0                       # number of work items this cpu started
system.cpu.num_busy_cycles                         19                       # Number of busy cycles
system.cpu.num_cc_register_reads                   20                       # number of times the CC registers were read
system.cpu.num_cc_register_writes                   6                       # number of times the CC registers were written
system.cpu.num_conditional_control_insts            0                       # number of instructions that are conditional controls
system.cpu.num_fp_alu_accesses                      0                       # Number of float alu accesses
system.cpu.num_fp_insts                             0                       # number of float instructions
system.cpu.num_fp_register_reads                    0                       # number of times the floating registers were read
system.cpu.num_fp_register_writes                   0                       # number of times the floating registers were written
system.cpu.num_func_calls                           0                       # number of times a function call or return occured
system.cpu.num_idle_cycles                          0                       # Number of idle cycles
system.cpu.num_int_alu_accesses                    14                       # Number of integer alu accesses
system.cpu.num_int_insts                           14                       # number of integer instructions
system.cpu.num_int_register_reads                  41                       # number of times the integer registers were read
system.cpu.num_int_register_writes                 12                       # number of times the integer registers were written
system.cpu.num_load_insts                           5                       # Number of load instructions
system.cpu.num_mem_refs                             7                       # number of memory refs
system.cpu.num_store_insts                          2                       # Number of store instructions
system.cpu.num_vec_alu_accesses                     0                       # Number of vector alu accesses
system.cpu.num_vec_insts                            0                       # number of vector instructions
system.cpu.num_vec_register_reads                   0                       # number of times the vector registers were read
system.cpu.num_vec_register_writes                  0                       # number of times the vector registers were written
system.cpu.op_class::No_OpClass                     0      0.00%      0.00% # Class of executed instruction
system.cpu.op_class::IntAlu                         7     50.00%     50.00% # Class of executed instruction
system.cpu.op_class::IntMult                        0      0.00%     50.00% # Class of executed instruction
system.cpu.op_class::IntDiv                         0      0.00%     50.00% # Class of executed instruction
system.cpu.op_class::FloatAdd                       0      0.00%     50.00% # Class of executed instruction
system.cpu.op_class::FloatCmp                       0      0.00%     50.00% # Class of executed instruction
system.cpu.op_class::FloatCvt                       0      0.00%     50.00% # Class of executed instruction
system.cpu.op_class::FloatMult                      0      0.00%     50.00% # Class of executed instruction
system.cpu.op_class::FloatMultAcc                   0      0.00%     50.00% # Class of executed instruction
system.cpu.op_class::FloatDiv                       0      0.00%     50.00% # Class of executed instruction
system.cpu.op_class::FloatMisc                      0      0.00%     50.00% # Class of executed instruction
system.cpu.op_class::FloatSqrt                      0      0.00%     50.00% # Class of executed instruction
system.cpu.op_class::SimdAdd                        0      0.00%     50.00% # Class of executed instruction
system.cpu.op_class::SimdAddAcc                     0      0.00%     50.00% # Class of executed instruction
system.cpu.op_class::SimdAlu                        0      0.00%     50.00% # Class of executed instruction
system.cpu.op_class::SimdCmp                        0      0.00%     50.00% # Class of executed instruction
system.cpu.op_class::SimdCvt                        0      0.00%     50.00% # Class of executed instruction
system.cpu.op_class::SimdMisc                       0      0.00%     50.00% # Class of executed instruction
system.cpu.op_class::SimdMult                       0      0.00%     50.00% # Class of executed instruction
system.cpu.op_class::SimdMultAcc                    0      0.00%     50.00% # Class of executed instruction
system.cpu.op_class::SimdShift                      0      0.00%     50.00% # Class of executed instruction
system.cpu.op_class::SimdShiftAcc                   0      0.00%     50.00% # Class of executed instruction
system.cpu.op_class::SimdDiv                        0      0.00%     50.00% # Class of executed instruction
system.cpu.op_class::SimdSqrt                       0      0.00%     50.00% # Class of executed instruction
system.cpu.op_class::SimdFloatAdd                   0      0.00%     50.00% # Class of executed instruction
system.cpu.op_class::SimdFloatAlu                   0      0.00%     50.00% # Class of executed instruction
system.cpu.op_class::SimdFloatCmp                   0      0.00%     50.00% # Class of executed instruction
system.cpu.op_class::SimdFloatCvt                   0      0.00%     50.00% # Class of executed instruction
system.cpu.op_class::SimdFloatDiv                   0      0.00%     50.00% # Class of executed instruction
system.cpu.op_class::SimdFloatMisc                  0      0.00%     50.00% # Class of executed instruction
system.cpu.op_class::SimdFloatMult                  0      0.00%     50.00% # Class of executed instruction
system.cpu.op_class::SimdFloatMultAcc               0      0.00%     50.00% # Class of executed instruction
system.cpu.op_class::SimdFloatSqrt                  0      0.00%     50.00% # Class of executed instruction
system.cpu.op_class::SimdReduceAdd                  0      0.00%     50.00% # Class of executed instruction
system.cpu.op_class::SimdReduceAlu                  0      0.00%     50.00% # Class of executed instruction
system.cpu.op_class::SimdReduceCmp                  0      0.00%     50.00% # Class of executed instruction
system.cpu.op_class::SimdFloatReduceAdd             0      0.00%     50.00% # Class of executed instruction
system.cpu.op_class::SimdFloatReduceCmp             0      0.00%     50.00% # Class of executed instruction
system.cpu.op_class::SimdAes                        0      0.00%     50.00% # Class of executed instruction
system.cpu.op_class::SimdAesMix                     0      0.00%     50.00% # Class of executed instruction
system.cpu.op_class::SimdSha1Hash                   0      0.00%     50.00% # Class of executed instruction
system.cpu.op_class::SimdSha1Hash2                  0      0.00%     50.00% # Class of executed instruction
system.cpu.op_class::SimdSha256Hash                 0      0.00%     50.00% # Class of executed instruction
system.cpu.op_class::SimdSha256Hash2                0      0.00%     50.00% # Class of executed instruction
system.cpu.op_class::SimdShaSigma2                  0      0.00%     50.00% # Class of executed instruction
system.cpu.op_class::SimdShaSigma3                  0      0.00%     50.00% # Class of executed instruction
system.cpu.op_class::SimdPredAlu                    0      0.00%     50.00% # Class of executed instruction
system.cpu.op_class::MemRead                        5     35.71%     85.71% # Class of executed instruction
system.cpu.op_class::MemWrite                       2     14.29%    100.00% # Class of executed instruction
system.cpu.op_class::FloatMemRead                   0      0.00%    100.00% # Class of executed instruction
system.cpu.op_class::FloatMemWrite                  0      0.00%    100.00% # Class of executed instruction
system.cpu.op_class::IprAccess                      0      0.00%    100.00% # Class of executed instruction
system.cpu.op_class::InstPrefetch                   0      0.00%    100.00% # Class of executed instruction
system.cpu.op_class::total                         14                       # Class of executed instruction
system.cpu.workload.numSyscalls                     0                       # Number of system calls
system.membus.snoop_filter.hit_multi_requests            0                       # Number of requests hitting in the snoop filter with multiple (>1) holders of the requested data.
system.membus.snoop_filter.hit_multi_snoops            0                       # Number of snoops hitting in the snoop filter with multiple (>1) holders of the requested data.
system.membus.snoop_filter.hit_single_requests           47                       # Number of requests hitting in the snoop filter with a single holder of the requested data.
system.membus.snoop_filter.hit_single_snoops            0                       # Number of snoops hitting in the snoop filter with a single holder of the requested data.
system.membus.snoop_filter.tot_requests          3089                       # Total number of requests made to the snoop filter.
system.membus.snoop_filter.tot_snoops               0                       # Total number of snoops made to the snoop filter.
system.switch_cpus.branchPred.BTBCorrect            0                       # Number of correct BTB predictions (this stat may not work properly.
system.switch_cpus.branchPred.BTBHitPct      0.000000                       # BTB Hit Percentage
system.switch_cpus.branchPred.BTBHits               0                       # Number of BTB hits
system.switch_cpus.branchPred.BTBLookups       617453                       # Number of BTB lookups
system.switch_cpus.branchPred.RASInCorrect            1                       # Number of incorrect RAS predictions.
system.switch_cpus.branchPred.condIncorrect        18780                       # Number of conditional branches incorrect
system.switch_cpus.branchPred.condPredicted       858461                       # Number of conditional branches predicted
system.switch_cpus.branchPred.indirectHits       494837                       # Number of indirect target hits.
system.switch_cpus.branchPred.indirectLookups       617453                       # Number of indirect predictor lookups.
system.switch_cpus.branchPred.indirectMisses       122616                       # Number of indirect misses.
system.switch_cpus.branchPred.lookups          937071                       # Number of BP lookups
system.switch_cpus.branchPred.usedRAS           38925                       # Number of times the RAS was used to get a target.
system.switch_cpus.branchPredindirectMispredicted         2112                       # Number of mispredicted indirect branches.
system.switch_cpus.cc_regfile_reads          14092113                       # number of cc regfile reads
system.switch_cpus.cc_regfile_writes          7117963                       # number of cc regfile writes
system.switch_cpus.commit.amos                      0                       # Number of atomic instructions committed
system.switch_cpus.commit.branchMispredicts        18807                       # The number of times a branch was mispredicted
system.switch_cpus.commit.branches             714318                       # Number of branches committed
system.switch_cpus.commit.bw_lim_events       1278078                       # number cycles where commit BW limit reached
system.switch_cpus.commit.commitSquashedInsts      1183448                       # The number of squashed insts skipped by commit
system.switch_cpus.commit.committedInsts     10000000                       # Number of instructions committed
system.switch_cpus.commit.committedOps       16028359                       # Number of ops (including micro ops) committed
system.switch_cpus.commit.committed_per_cycle::samples      5063012                       # Number of insts commited each cycle
system.switch_cpus.commit.committed_per_cycle::mean     3.165775                       # Number of insts commited each cycle
system.switch_cpus.commit.committed_per_cycle::stdev     3.142272                       # Number of insts commited each cycle
system.switch_cpus.commit.committed_per_cycle::underflows            0      0.00%      0.00% # Number of insts commited each cycle
system.switch_cpus.commit.committed_per_cycle::0       827540     16.34%     16.34% # Number of insts commited each cycle
system.switch_cpus.commit.committed_per_cycle::1      1864721     36.83%     53.18% # Number of insts commited each cycle
system.switch_cpus.commit.committed_per_cycle::2       418078      8.26%     61.43% # Number of insts commited each cycle
system.switch_cpus.commit.committed_per_cycle::3       185347      3.66%     65.09% # Number of insts commited each cycle
system.switch_cpus.commit.committed_per_cycle::4       143405      2.83%     67.93% # Number of insts commited each cycle
system.switch_cpus.commit.committed_per_cycle::5       155466      3.07%     71.00% # Number of insts commited each cycle
system.switch_cpus.commit.committed_per_cycle::6       136772      2.70%     73.70% # Number of insts commited each cycle
system.switch_cpus.commit.committed_per_cycle::7        53605      1.06%     74.76% # Number of insts commited each cycle
system.switch_cpus.commit.committed_per_cycle::8      1278078     25.24%    100.00% # Number of insts commited each cycle
system.switch_cpus.commit.committed_per_cycle::overflows            0      0.00%    100.00% # Number of insts commited each cycle
system.switch_cpus.commit.committed_per_cycle::min_value            0                       # Number of insts commited each cycle
system.switch_cpus.commit.committed_per_cycle::max_value            8                       # Number of insts commited each cycle
system.switch_cpus.commit.committed_per_cycle::total      5063012                       # Number of insts commited each cycle
system.switch_cpus.commit.fp_insts            1417974                       # Number of committed floating point instructions.
system.switch_cpus.commit.function_calls        31902                       # Number of function calls committed.
system.switch_cpus.commit.int_insts          14812880                       # Number of committed integer instructions.
system.switch_cpus.commit.loads               3609577                       # Number of loads committed
system.switch_cpus.commit.membars                   0                       # Number of memory barriers committed
system.switch_cpus.commit.op_class_0::No_OpClass        95071      0.59%      0.59% # Class of committed instruction
system.switch_cpus.commit.op_class_0::IntAlu      9822899     61.28%     61.88% # Class of committed instruction
system.switch_cpus.commit.op_class_0::IntMult        84240      0.53%     62.40% # Class of committed instruction
system.switch_cpus.commit.op_class_0::IntDiv            0      0.00%     62.40% # Class of committed instruction
system.switch_cpus.commit.op_class_0::FloatAdd        32039      0.20%     62.60% # Class of committed instruction
system.switch_cpus.commit.op_class_0::FloatCmp            0      0.00%     62.60% # Class of committed instruction
system.switch_cpus.commit.op_class_0::FloatCvt            0      0.00%     62.60% # Class of committed instruction
system.switch_cpus.commit.op_class_0::FloatMult            0      0.00%     62.60% # Class of committed instruction
system.switch_cpus.commit.op_class_0::FloatMultAcc            0      0.00%     62.60% # Class of committed instruction
system.switch_cpus.commit.op_class_0::FloatDiv            0      0.00%     62.60% # Class of committed instruction
system.switch_cpus.commit.op_class_0::FloatMisc            0      0.00%     62.60% # Class of committed instruction
system.switch_cpus.commit.op_class_0::FloatSqrt            0      0.00%     62.60% # Class of committed instruction
system.switch_cpus.commit.op_class_0::SimdAdd        21142      0.13%     62.73% # Class of committed instruction
system.switch_cpus.commit.op_class_0::SimdAddAcc            0      0.00%     62.73% # Class of committed instruction
system.switch_cpus.commit.op_class_0::SimdAlu       327752      2.04%     64.78% # Class of committed instruction
system.switch_cpus.commit.op_class_0::SimdCmp            0      0.00%     64.78% # Class of committed instruction
system.switch_cpus.commit.op_class_0::SimdCvt       126470      0.79%     65.57% # Class of committed instruction
system.switch_cpus.commit.op_class_0::SimdMisc       158042      0.99%     66.55% # Class of committed instruction
system.switch_cpus.commit.op_class_0::SimdMult            0      0.00%     66.55% # Class of committed instruction
system.switch_cpus.commit.op_class_0::SimdMultAcc            0      0.00%     66.55% # Class of committed instruction
system.switch_cpus.commit.op_class_0::SimdShift        63426      0.40%     66.95% # Class of committed instruction
system.switch_cpus.commit.op_class_0::SimdShiftAcc            0      0.00%     66.95% # Class of committed instruction
system.switch_cpus.commit.op_class_0::SimdDiv            0      0.00%     66.95% # Class of committed instruction
system.switch_cpus.commit.op_class_0::SimdSqrt            0      0.00%     66.95% # Class of committed instruction
system.switch_cpus.commit.op_class_0::SimdFloatAdd       107090      0.67%     67.62% # Class of committed instruction
system.switch_cpus.commit.op_class_0::SimdFloatAlu            0      0.00%     67.62% # Class of committed instruction
system.switch_cpus.commit.op_class_0::SimdFloatCmp           27      0.00%     67.62% # Class of committed instruction
system.switch_cpus.commit.op_class_0::SimdFloatCvt       149566      0.93%     68.55% # Class of committed instruction
system.switch_cpus.commit.op_class_0::SimdFloatDiv        21087      0.13%     68.68% # Class of committed instruction
system.switch_cpus.commit.op_class_0::SimdFloatMisc            0      0.00%     68.68% # Class of committed instruction
system.switch_cpus.commit.op_class_0::SimdFloatMult        10842      0.07%     68.75% # Class of committed instruction
system.switch_cpus.commit.op_class_0::SimdFloatMultAcc            0      0.00%     68.75% # Class of committed instruction
system.switch_cpus.commit.op_class_0::SimdFloatSqrt            0      0.00%     68.75% # Class of committed instruction
system.switch_cpus.commit.op_class_0::SimdReduceAdd            0      0.00%     68.75% # Class of committed instruction
system.switch_cpus.commit.op_class_0::SimdReduceAlu            0      0.00%     68.75% # Class of committed instruction
system.switch_cpus.commit.op_class_0::SimdReduceCmp            0      0.00%     68.75% # Class of committed instruction
system.switch_cpus.commit.op_class_0::SimdFloatReduceAdd            0      0.00%     68.75% # Class of committed instruction
system.switch_cpus.commit.op_class_0::SimdFloatReduceCmp            0      0.00%     68.75% # Class of committed instruction
system.switch_cpus.commit.op_class_0::SimdAes            0      0.00%     68.75% # Class of committed instruction
system.switch_cpus.commit.op_class_0::SimdAesMix            0      0.00%     68.75% # Class of committed instruction
system.switch_cpus.commit.op_class_0::SimdSha1Hash            0      0.00%     68.75% # Class of committed instruction
system.switch_cpus.commit.op_class_0::SimdSha1Hash2            0      0.00%     68.75% # Class of committed instruction
system.switch_cpus.commit.op_class_0::SimdSha256Hash            0      0.00%     68.75% # Class of committed instruction
system.switch_cpus.commit.op_class_0::SimdSha256Hash2            0      0.00%     68.75% # Class of committed instruction
system.switch_cpus.commit.op_class_0::SimdShaSigma2            0      0.00%     68.75% # Class of committed instruction
system.switch_cpus.commit.op_class_0::SimdShaSigma3            0      0.00%     68.75% # Class of committed instruction
system.switch_cpus.commit.op_class_0::SimdPredAlu            0      0.00%     68.75% # Class of committed instruction
system.switch_cpus.commit.op_class_0::MemRead      3386158     21.13%     89.88% # Class of committed instruction
system.switch_cpus.commit.op_class_0::MemWrite      1398812      8.73%     98.60% # Class of committed instruction
system.switch_cpus.commit.op_class_0::FloatMemRead       223419      1.39%    100.00% # Class of committed instruction
system.switch_cpus.commit.op_class_0::FloatMemWrite          277      0.00%    100.00% # Class of committed instruction
system.switch_cpus.commit.op_class_0::IprAccess            0      0.00%    100.00% # Class of committed instruction
system.switch_cpus.commit.op_class_0::InstPrefetch            0      0.00%    100.00% # Class of committed instruction
system.switch_cpus.commit.op_class_0::total     16028359                       # Class of committed instruction
system.switch_cpus.commit.refs                5008666                       # Number of memory references committed
system.switch_cpus.commit.swp_count                 0                       # Number of s/w prefetches committed
system.switch_cpus.commit.vec_insts                 0                       # Number of committed Vector instructions.
system.switch_cpus.committedInsts            10000000                       # Number of Instructions Simulated
system.switch_cpus.committedOps              16028359                       # Number of Ops (including micro ops) Simulated
system.switch_cpus.cpi                       0.523036                       # CPI: Cycles Per Instruction
system.switch_cpus.cpi_total                 0.523036                       # CPI: Total CPI of All Threads
system.switch_cpus.decode.BlockedCycles       2334592                       # Number of cycles decode is blocked
system.switch_cpus.decode.DecodedInsts       17542409                       # Number of instructions handled by decode
system.switch_cpus.decode.IdleCycles           558034                       # Number of cycles decode is idle
system.switch_cpus.decode.RunCycles           1520393                       # Number of cycles decode is running
system.switch_cpus.decode.SquashCycles          19029                       # Number of cycles decode is squashing
system.switch_cpus.decode.UnblockCycles        789003                       # Number of cycles decode is unblocking
system.switch_cpus.dtb.rdAccesses             3687461                       # TLB accesses on read requests
system.switch_cpus.dtb.rdMisses                    73                       # TLB misses on read requests
system.switch_cpus.dtb.wrAccesses             1408815                       # TLB accesses on write requests
system.switch_cpus.dtb.wrMisses                    94                       # TLB misses on write requests
system.switch_cpus.fetch.Branches              937071                       # Number of branches that fetch encountered
system.switch_cpus.fetch.CacheLines            843253                       # Number of cache lines fetched
system.switch_cpus.fetch.Cycles               4345867                       # Number of cycles fetch has run and was not squashing or blocked
system.switch_cpus.fetch.IcacheSquashes          3151                       # Number of outstanding Icache misses that were squashed
system.switch_cpus.fetch.Insts               10906509                       # Number of instructions fetch has processed
system.switch_cpus.fetch.MiscStallCycles           27                       # Number of cycles fetch has spent waiting on interrupts, or bad addresses, or out of MSHRs
system.switch_cpus.fetch.PendingTrapStallCycles          164                       # Number of stall cycles due to pending traps
system.switch_cpus.fetch.SquashCycles           38058                       # Number of cycles fetch has spent squashing
system.switch_cpus.fetch.branchRate          0.179160                       # Number of branch fetches per cycle
system.switch_cpus.fetch.icacheStallCycles       855970                       # Number of cycles fetch is stalled on an Icache miss
system.switch_cpus.fetch.predictedBranches       533762                       # Number of branches that fetch has predicted taken
system.switch_cpus.fetch.rate                2.085232                       # Number of inst fetches per cycle
system.switch_cpus.fetch.rateDist::samples      5221057                       # Number of instructions fetched each cycle (Total)
system.switch_cpus.fetch.rateDist::mean      3.402505                       # Number of instructions fetched each cycle (Total)
system.switch_cpus.fetch.rateDist::stdev     3.552680                       # Number of instructions fetched each cycle (Total)
system.switch_cpus.fetch.rateDist::underflows            0      0.00%      0.00% # Number of instructions fetched each cycle (Total)
system.switch_cpus.fetch.rateDist::0          2423635     46.42%     46.42% # Number of instructions fetched each cycle (Total)
system.switch_cpus.fetch.rateDist::1           139431      2.67%     49.09% # Number of instructions fetched each cycle (Total)
system.switch_cpus.fetch.rateDist::2           105293      2.02%     51.11% # Number of instructions fetched each cycle (Total)
system.switch_cpus.fetch.rateDist::3           149826      2.87%     53.98% # Number of instructions fetched each cycle (Total)
system.switch_cpus.fetch.rateDist::4           182074      3.49%     57.46% # Number of instructions fetched each cycle (Total)
system.switch_cpus.fetch.rateDist::5           332157      6.36%     63.83% # Number of instructions fetched each cycle (Total)
system.switch_cpus.fetch.rateDist::6           169215      3.24%     67.07% # Number of instructions fetched each cycle (Total)
system.switch_cpus.fetch.rateDist::7           194601      3.73%     70.79% # Number of instructions fetched each cycle (Total)
system.switch_cpus.fetch.rateDist::8          1524825     29.21%    100.00% # Number of instructions fetched each cycle (Total)
system.switch_cpus.fetch.rateDist::overflows            0      0.00%    100.00% # Number of instructions fetched each cycle (Total)
system.switch_cpus.fetch.rateDist::min_value            0                       # Number of instructions fetched each cycle (Total)
system.switch_cpus.fetch.rateDist::max_value            8                       # Number of instructions fetched each cycle (Total)
system.switch_cpus.fetch.rateDist::total      5221057                       # Number of instructions fetched each cycle (Total)
system.switch_cpus.fp_regfile_reads           2734835                       # number of floating regfile reads
system.switch_cpus.fp_regfile_writes          1362244                       # number of floating regfile writes
system.switch_cpus.idleCycles                    9301                       # Total number of cycles that the CPU has spent unscheduled due to idling
system.switch_cpus.iew.branchMispredicts        32534                       # Number of branch mispredicts detected at execute
system.switch_cpus.iew.exec_branches           776061                       # Number of branches executed
system.switch_cpus.iew.exec_nop                     0                       # number of nop insts executed
system.switch_cpus.iew.exec_rate             3.196942                       # Inst execution rate
system.switch_cpus.iew.exec_refs              5090869                       # number of memory reference insts executed
system.switch_cpus.iew.exec_stores            1408815                       # Number of stores executed
system.switch_cpus.iew.exec_swp                     0                       # number of swp insts executed
system.switch_cpus.iew.iewBlockCycles          139909                       # Number of cycles IEW is blocking
system.switch_cpus.iew.iewDispLoadInsts       3712977                       # Number of dispatched load instructions
system.switch_cpus.iew.iewDispNonSpecInsts            4                       # Number of dispatched non-speculative instructions
system.switch_cpus.iew.iewDispSquashedInsts          358                       # Number of squashed instructions skipped by dispatch
system.switch_cpus.iew.iewDispStoreInsts      1422910                       # Number of dispatched store instructions
system.switch_cpus.iew.iewDispatchedInsts     17211836                       # Number of instructions dispatched to IQ
system.switch_cpus.iew.iewExecLoadInsts       3682054                       # Number of load instructions executed
system.switch_cpus.iew.iewExecSquashedInsts        29916                       # Number of squashed instructions skipped in execute
system.switch_cpus.iew.iewExecutedInsts      16721150                       # Number of executed instructions
system.switch_cpus.iew.iewIQFullEvents             94                       # Number of times the IQ has become full, causing a stall
system.switch_cpus.iew.iewIdleCycles                0                       # Number of cycles IEW is idle
system.switch_cpus.iew.iewLSQFullEvents         45527                       # Number of times the LSQ has become full, causing a stall
system.switch_cpus.iew.iewSquashCycles          19029                       # Number of cycles IEW is squashing
system.switch_cpus.iew.iewUnblockCycles         46370                       # Number of cycles IEW is unblocking
system.switch_cpus.iew.lsq.thread0.blockedLoads            0                       # Number of blocked loads due to partial load-store forwarding
system.switch_cpus.iew.lsq.thread0.cacheBlocked          170                       # Number of times an access to memory failed due to the cache being blocked
system.switch_cpus.iew.lsq.thread0.forwLoads       390427                       # Number of loads that had data forwarded from stores
system.switch_cpus.iew.lsq.thread0.ignoredResponses           49                       # Number of memory responses ignored because the instruction is squashed
system.switch_cpus.iew.lsq.thread0.invAddrLoads            0                       # Number of loads ignored due to an invalid address
system.switch_cpus.iew.lsq.thread0.invAddrSwpfs            0                       # Number of software prefetches ignored due to an invalid address
system.switch_cpus.iew.lsq.thread0.memOrderViolation          253                       # Number of memory ordering violations
system.switch_cpus.iew.lsq.thread0.rescheduledLoads            0                       # Number of loads that were rescheduled
system.switch_cpus.iew.lsq.thread0.squashedLoads       103388                       # Number of loads squashed
system.switch_cpus.iew.lsq.thread0.squashedStores        23811                       # Number of stores squashed
system.switch_cpus.iew.memOrderViolationEvents          253                       # Number of memory order violations
system.switch_cpus.iew.predictedNotTakenIncorrect        27860                       # Number of branches that were predicted not taken incorrectly
system.switch_cpus.iew.predictedTakenIncorrect         4674                       # Number of branches that were predicted taken incorrectly
system.switch_cpus.iew.wb_consumers          26922477                       # num instructions consuming a value
system.switch_cpus.iew.wb_count              16705719                       # cumulative count of insts written-back
system.switch_cpus.iew.wb_fanout             0.497798                       # average fanout of values written-back
system.switch_cpus.iew.wb_producers          13401954                       # num instructions producing a value
system.switch_cpus.iew.wb_rate               3.193992                       # insts written-back per cycle
system.switch_cpus.iew.wb_sent               16712148                       # cumulative count of insts sent to commit
system.switch_cpus.int_regfile_reads         28976628                       # number of integer regfile reads
system.switch_cpus.int_regfile_writes        13056080                       # number of integer regfile writes
system.switch_cpus.ipc                       1.911915                       # IPC: Instructions Per Cycle
system.switch_cpus.ipc_total                 1.911915                       # IPC: Total IPC of All Threads
system.switch_cpus.iq.FU_type_0::No_OpClass        99756      0.60%      0.60% # Type of FU issued
system.switch_cpus.iq.FU_type_0::IntAlu      10366373     61.88%     62.48% # Type of FU issued
system.switch_cpus.iq.FU_type_0::IntMult        85852      0.51%     62.99% # Type of FU issued
system.switch_cpus.iq.FU_type_0::IntDiv             0      0.00%     62.99% # Type of FU issued
system.switch_cpus.iq.FU_type_0::FloatAdd        34537      0.21%     63.20% # Type of FU issued
system.switch_cpus.iq.FU_type_0::FloatCmp            0      0.00%     63.20% # Type of FU issued
system.switch_cpus.iq.FU_type_0::FloatCvt            0      0.00%     63.20% # Type of FU issued
system.switch_cpus.iq.FU_type_0::FloatMult            0      0.00%     63.20% # Type of FU issued
system.switch_cpus.iq.FU_type_0::FloatMultAcc            0      0.00%     63.20% # Type of FU issued
system.switch_cpus.iq.FU_type_0::FloatDiv            0      0.00%     63.20% # Type of FU issued
system.switch_cpus.iq.FU_type_0::FloatMisc            0      0.00%     63.20% # Type of FU issued
system.switch_cpus.iq.FU_type_0::FloatSqrt            0      0.00%     63.20% # Type of FU issued
system.switch_cpus.iq.FU_type_0::SimdAdd        21142      0.13%     63.33% # Type of FU issued
system.switch_cpus.iq.FU_type_0::SimdAddAcc            0      0.00%     63.33% # Type of FU issued
system.switch_cpus.iq.FU_type_0::SimdAlu       341217      2.04%     65.36% # Type of FU issued
system.switch_cpus.iq.FU_type_0::SimdCmp            0      0.00%     65.36% # Type of FU issued
system.switch_cpus.iq.FU_type_0::SimdCvt       128760      0.77%     66.13% # Type of FU issued
system.switch_cpus.iq.FU_type_0::SimdMisc       159908      0.95%     67.09% # Type of FU issued
system.switch_cpus.iq.FU_type_0::SimdMult            0      0.00%     67.09% # Type of FU issued
system.switch_cpus.iq.FU_type_0::SimdMultAcc            0      0.00%     67.09% # Type of FU issued
system.switch_cpus.iq.FU_type_0::SimdShift        63476      0.38%     67.46% # Type of FU issued
system.switch_cpus.iq.FU_type_0::SimdShiftAcc            0      0.00%     67.46% # Type of FU issued
system.switch_cpus.iq.FU_type_0::SimdDiv            0      0.00%     67.46% # Type of FU issued
system.switch_cpus.iq.FU_type_0::SimdSqrt            0      0.00%     67.46% # Type of FU issued
system.switch_cpus.iq.FU_type_0::SimdFloatAdd       138821      0.83%     68.29% # Type of FU issued
system.switch_cpus.iq.FU_type_0::SimdFloatAlu            0      0.00%     68.29% # Type of FU issued
system.switch_cpus.iq.FU_type_0::SimdFloatCmp           40      0.00%     68.29% # Type of FU issued
system.switch_cpus.iq.FU_type_0::SimdFloatCvt       175562      1.05%     69.34% # Type of FU issued
system.switch_cpus.iq.FU_type_0::SimdFloatDiv        23011      0.14%     69.48% # Type of FU issued
system.switch_cpus.iq.FU_type_0::SimdFloatMisc            0      0.00%     69.48% # Type of FU issued
system.switch_cpus.iq.FU_type_0::SimdFloatMult        12793      0.08%     69.56% # Type of FU issued
system.switch_cpus.iq.FU_type_0::SimdFloatMultAcc            0      0.00%     69.56% # Type of FU issued
system.switch_cpus.iq.FU_type_0::SimdFloatSqrt            0      0.00%     69.56% # Type of FU issued
system.switch_cpus.iq.FU_type_0::SimdReduceAdd            0      0.00%     69.56% # Type of FU issued
system.switch_cpus.iq.FU_type_0::SimdReduceAlu            0      0.00%     69.56% # Type of FU issued
system.switch_cpus.iq.FU_type_0::SimdReduceCmp            0      0.00%     69.56% # Type of FU issued
system.switch_cpus.iq.FU_type_0::SimdFloatReduceAdd            0      0.00%     69.56% # Type of FU issued
system.switch_cpus.iq.FU_type_0::SimdFloatReduceCmp            0      0.00%     69.56% # Type of FU issued
system.switch_cpus.iq.FU_type_0::SimdAes            0      0.00%     69.56% # Type of FU issued
system.switch_cpus.iq.FU_type_0::SimdAesMix            0      0.00%     69.56% # Type of FU issued
system.switch_cpus.iq.FU_type_0::SimdSha1Hash            0      0.00%     69.56% # Type of FU issued
system.switch_cpus.iq.FU_type_0::SimdSha1Hash2            0      0.00%     69.56% # Type of FU issued
system.switch_cpus.iq.FU_type_0::SimdSha256Hash            0      0.00%     69.56% # Type of FU issued
system.switch_cpus.iq.FU_type_0::SimdSha256Hash2            0      0.00%     69.56% # Type of FU issued
system.switch_cpus.iq.FU_type_0::SimdShaSigma2            0      0.00%     69.56% # Type of FU issued
system.switch_cpus.iq.FU_type_0::SimdShaSigma3            0      0.00%     69.56% # Type of FU issued
system.switch_cpus.iq.FU_type_0::SimdPredAlu            0      0.00%     69.56% # Type of FU issued
system.switch_cpus.iq.FU_type_0::MemRead      3411083     20.36%     89.92% # Type of FU issued
system.switch_cpus.iq.FU_type_0::MemWrite      1409930      8.42%     98.34% # Type of FU issued
system.switch_cpus.iq.FU_type_0::FloatMemRead       278412      1.66%    100.00% # Type of FU issued
system.switch_cpus.iq.FU_type_0::FloatMemWrite          394      0.00%    100.00% # Type of FU issued
system.switch_cpus.iq.FU_type_0::IprAccess            0      0.00%    100.00% # Type of FU issued
system.switch_cpus.iq.FU_type_0::InstPrefetch            0      0.00%    100.00% # Type of FU issued
system.switch_cpus.iq.FU_type_0::total       16751067                       # Type of FU issued
system.switch_cpus.iq.fp_alu_accesses         1578130                       # Number of floating point alu accesses
system.switch_cpus.iq.fp_inst_queue_reads      3134846                       # Number of floating instruction queue reads
system.switch_cpus.iq.fp_inst_queue_wakeup_accesses      1539873                       # Number of floating instruction queue wakeup accesses
system.switch_cpus.iq.fp_inst_queue_writes      1885314                       # Number of floating instruction queue writes
system.switch_cpus.iq.fu_busy_cnt              197550                       # FU busy when requested
system.switch_cpus.iq.fu_busy_rate           0.011793                       # FU busy rate (busy events/executed inst)
system.switch_cpus.iq.fu_full::No_OpClass            0      0.00%      0.00% # attempts to use FU when none available
system.switch_cpus.iq.fu_full::IntAlu          117096     59.27%     59.27% # attempts to use FU when none available
system.switch_cpus.iq.fu_full::IntMult              0      0.00%     59.27% # attempts to use FU when none available
system.switch_cpus.iq.fu_full::IntDiv               0      0.00%     59.27% # attempts to use FU when none available
system.switch_cpus.iq.fu_full::FloatAdd             0      0.00%     59.27% # attempts to use FU when none available
system.switch_cpus.iq.fu_full::FloatCmp             0      0.00%     59.27% # attempts to use FU when none available
system.switch_cpus.iq.fu_full::FloatCvt             0      0.00%     59.27% # attempts to use FU when none available
system.switch_cpus.iq.fu_full::FloatMult            0      0.00%     59.27% # attempts to use FU when none available
system.switch_cpus.iq.fu_full::FloatMultAcc            0      0.00%     59.27% # attempts to use FU when none available
system.switch_cpus.iq.fu_full::FloatDiv             0      0.00%     59.27% # attempts to use FU when none available
system.switch_cpus.iq.fu_full::FloatMisc            0      0.00%     59.27% # attempts to use FU when none available
system.switch_cpus.iq.fu_full::FloatSqrt            0      0.00%     59.27% # attempts to use FU when none available
system.switch_cpus.iq.fu_full::SimdAdd              0      0.00%     59.27% # attempts to use FU when none available
system.switch_cpus.iq.fu_full::SimdAddAcc            0      0.00%     59.27% # attempts to use FU when none available
system.switch_cpus.iq.fu_full::SimdAlu             54      0.03%     59.30% # attempts to use FU when none available
system.switch_cpus.iq.fu_full::SimdCmp              0      0.00%     59.30% # attempts to use FU when none available
system.switch_cpus.iq.fu_full::SimdCvt           3399      1.72%     61.02% # attempts to use FU when none available
system.switch_cpus.iq.fu_full::SimdMisc            21      0.01%     61.03% # attempts to use FU when none available
system.switch_cpus.iq.fu_full::SimdMult             0      0.00%     61.03% # attempts to use FU when none available
system.switch_cpus.iq.fu_full::SimdMultAcc            0      0.00%     61.03% # attempts to use FU when none available
system.switch_cpus.iq.fu_full::SimdShift            0      0.00%     61.03% # attempts to use FU when none available
system.switch_cpus.iq.fu_full::SimdShiftAcc            0      0.00%     61.03% # attempts to use FU when none available
system.switch_cpus.iq.fu_full::SimdDiv              0      0.00%     61.03% # attempts to use FU when none available
system.switch_cpus.iq.fu_full::SimdSqrt             0      0.00%     61.03% # attempts to use FU when none available
system.switch_cpus.iq.fu_full::SimdFloatAdd         2527      1.28%     62.31% # attempts to use FU when none available
system.switch_cpus.iq.fu_full::SimdFloatAlu            0      0.00%     62.31% # attempts to use FU when none available
system.switch_cpus.iq.fu_full::SimdFloatCmp            0      0.00%     62.31% # attempts to use FU when none available
system.switch_cpus.iq.fu_full::SimdFloatCvt         9993      5.06%     67.37% # attempts to use FU when none available
system.switch_cpus.iq.fu_full::SimdFloatDiv            0      0.00%     67.37% # attempts to use FU when none available
system.switch_cpus.iq.fu_full::SimdFloatMisc            0      0.00%     67.37% # attempts to use FU when none available
system.switch_cpus.iq.fu_full::SimdFloatMult            0      0.00%     67.37% # attempts to use FU when none available
system.switch_cpus.iq.fu_full::SimdFloatMultAcc            0      0.00%     67.37% # attempts to use FU when none available
system.switch_cpus.iq.fu_full::SimdFloatSqrt            0      0.00%     67.37% # attempts to use FU when none available
system.switch_cpus.iq.fu_full::SimdReduceAdd            0      0.00%     67.37% # attempts to use FU when none available
system.switch_cpus.iq.fu_full::SimdReduceAlu            0      0.00%     67.37% # attempts to use FU when none available
system.switch_cpus.iq.fu_full::SimdReduceCmp            0      0.00%     67.37% # attempts to use FU when none available
system.switch_cpus.iq.fu_full::SimdFloatReduceAdd            0      0.00%     67.37% # attempts to use FU when none available
system.switch_cpus.iq.fu_full::SimdFloatReduceCmp            0      0.00%     67.37% # attempts to use FU when none available
system.switch_cpus.iq.fu_full::SimdAes              0      0.00%     67.37% # attempts to use FU when none available
system.switch_cpus.iq.fu_full::SimdAesMix            0      0.00%     67.37% # attempts to use FU when none available
system.switch_cpus.iq.fu_full::SimdSha1Hash            0      0.00%     67.37% # attempts to use FU when none available
system.switch_cpus.iq.fu_full::SimdSha1Hash2            0      0.00%     67.37% # attempts to use FU when none available
system.switch_cpus.iq.fu_full::SimdSha256Hash            0      0.00%     67.37% # attempts to use FU when none available
system.switch_cpus.iq.fu_full::SimdSha256Hash2            0      0.00%     67.37% # attempts to use FU when none available
system.switch_cpus.iq.fu_full::SimdShaSigma2            0      0.00%     67.37% # attempts to use FU when none available
system.switch_cpus.iq.fu_full::SimdShaSigma3            0      0.00%     67.37% # attempts to use FU when none available
system.switch_cpus.iq.fu_full::SimdPredAlu            0      0.00%     67.37% # attempts to use FU when none available
system.switch_cpus.iq.fu_full::MemRead          57652     29.18%     96.55% # attempts to use FU when none available
system.switch_cpus.iq.fu_full::MemWrite          1145      0.58%     97.13% # attempts to use FU when none available
system.switch_cpus.iq.fu_full::FloatMemRead         5662      2.87%    100.00% # attempts to use FU when none available
system.switch_cpus.iq.fu_full::FloatMemWrite            1      0.00%    100.00% # attempts to use FU when none available
system.switch_cpus.iq.fu_full::IprAccess            0      0.00%    100.00% # attempts to use FU when none available
system.switch_cpus.iq.fu_full::InstPrefetch            0      0.00%    100.00% # attempts to use FU when none available
system.switch_cpus.iq.int_alu_accesses       15270731                       # Number of integer alu accesses
system.switch_cpus.iq.int_inst_queue_reads     35863413                       # Number of integer instruction queue reads
system.switch_cpus.iq.int_inst_queue_wakeup_accesses     15165846                       # Number of integer instruction queue wakeup accesses
system.switch_cpus.iq.int_inst_queue_writes     16510194                       # Number of integer instruction queue writes
system.switch_cpus.iq.iqInstsAdded           17211821                       # Number of instructions added to the IQ (excludes non-spec)
system.switch_cpus.iq.iqInstsIssued          16751067                       # Number of instructions issued
system.switch_cpus.iq.iqNonSpecInstsAdded           15                       # Number of non-speculative instructions added to the IQ
system.switch_cpus.iq.iqSquashedInstsExamined      1183421                       # Number of squashed instructions iterated over during squash; mainly for profiling
system.switch_cpus.iq.iqSquashedInstsIssued        77519                       # Number of squashed instructions issued
system.switch_cpus.iq.iqSquashedNonSpecRemoved           15                       # Number of squashed non-spec instructions that were removed
system.switch_cpus.iq.iqSquashedOperandsExamined      1716562                       # Number of squashed operands that are examined and possibly removed from graph
system.switch_cpus.iq.issued_per_cycle::samples      5221057                       # Number of insts issued each cycle
system.switch_cpus.iq.issued_per_cycle::mean     3.208367                       # Number of insts issued each cycle
system.switch_cpus.iq.issued_per_cycle::stdev     2.256872                       # Number of insts issued each cycle
system.switch_cpus.iq.issued_per_cycle::underflows            0      0.00%      0.00% # Number of insts issued each cycle
system.switch_cpus.iq.issued_per_cycle::0       732982     14.04%     14.04% # Number of insts issued each cycle
system.switch_cpus.iq.issued_per_cycle::1       589623     11.29%     25.33% # Number of insts issued each cycle
system.switch_cpus.iq.issued_per_cycle::2       876320     16.78%     42.12% # Number of insts issued each cycle
system.switch_cpus.iq.issued_per_cycle::3       806693     15.45%     57.57% # Number of insts issued each cycle
system.switch_cpus.iq.issued_per_cycle::4       737110     14.12%     71.69% # Number of insts issued each cycle
system.switch_cpus.iq.issued_per_cycle::5       615164     11.78%     83.47% # Number of insts issued each cycle
system.switch_cpus.iq.issued_per_cycle::6       339563      6.50%     89.97% # Number of insts issued each cycle
system.switch_cpus.iq.issued_per_cycle::7       261729      5.01%     94.98% # Number of insts issued each cycle
system.switch_cpus.iq.issued_per_cycle::8       261873      5.02%    100.00% # Number of insts issued each cycle
system.switch_cpus.iq.issued_per_cycle::overflows            0      0.00%    100.00% # Number of insts issued each cycle
system.switch_cpus.iq.issued_per_cycle::min_value            0                       # Number of insts issued each cycle
system.switch_cpus.iq.issued_per_cycle::max_value            8                       # Number of insts issued each cycle
system.switch_cpus.iq.issued_per_cycle::total      5221057                       # Number of insts issued each cycle
system.switch_cpus.iq.rate                   3.202662                       # Inst issue rate
system.switch_cpus.iq.vec_alu_accesses              0                       # Number of vector alu accesses
system.switch_cpus.iq.vec_inst_queue_reads            0                       # Number of vector instruction queue reads
system.switch_cpus.iq.vec_inst_queue_wakeup_accesses            0                       # Number of vector instruction queue wakeup accesses
system.switch_cpus.iq.vec_inst_queue_writes            0                       # Number of vector instruction queue writes
system.switch_cpus.itb.rdAccesses                   0                       # TLB accesses on read requests
system.switch_cpus.itb.rdMisses                     0                       # TLB misses on read requests
system.switch_cpus.itb.wrAccesses              843281                       # TLB accesses on write requests
system.switch_cpus.itb.wrMisses                    44                       # TLB misses on write requests
system.switch_cpus.memDep0.conflictingLoads       402888                       # Number of conflicting loads.
system.switch_cpus.memDep0.conflictingStores       300532                       # Number of conflicting stores.
system.switch_cpus.memDep0.insertedLoads      3712977                       # Number of loads inserted to the mem dependence unit.
system.switch_cpus.memDep0.insertedStores      1422910                       # Number of stores inserted to the mem dependence unit.
system.switch_cpus.misc_regfile_reads         6711927                       # number of misc regfile reads
system.switch_cpus.misc_regfile_writes              1                       # number of misc regfile writes
system.switch_cpus.numCycles                  5230358                       # number of cpu cycles simulated
system.switch_cpus.numWorkItemsCompleted            0                       # number of work items this cpu completed
system.switch_cpus.numWorkItemsStarted              0                       # number of work items this cpu started
system.switch_cpus.rename.BlockCycles          215851                       # Number of cycles rename is blocking
system.switch_cpus.rename.CommittedMaps      20724563                       # Number of HB maps that are committed
system.switch_cpus.rename.IQFullEvents         121297                       # Number of times rename has blocked due to IQ full
system.switch_cpus.rename.IdleCycles           868434                       # Number of cycles rename is idle
system.switch_cpus.rename.LQFullEvents         469603                       # Number of times rename has blocked due to LQ full
system.switch_cpus.rename.ROBFullEvents          3129                       # Number of times rename has blocked due to ROB full
system.switch_cpus.rename.RenameLookups      54788057                       # Number of register rename lookups that rename has made
system.switch_cpus.rename.RenamedInsts       17432313                       # Number of instructions processed by rename
system.switch_cpus.rename.RenamedOperands     22405885                       # Number of destination operands rename has renamed
system.switch_cpus.rename.RunCycles           1988748                       # Number of cycles rename is running
system.switch_cpus.rename.SQFullEvents        1274010                       # Number of times rename has blocked due to SQ full
system.switch_cpus.rename.SquashCycles          19029                       # Number of cycles rename is squashing
system.switch_cpus.rename.UnblockCycles       2128989                       # Number of cycles rename is unblocking
system.switch_cpus.rename.UndoneMaps          1681241                       # Number of HB maps that are undone due to squashing
system.switch_cpus.rename.fp_rename_lookups      2998032                       # Number of floating rename lookups
system.switch_cpus.rename.int_rename_lookups     29939001                       # Number of integer rename lookups
system.switch_cpus.rename.serializeStallCycles            0                       # count of cycles rename stalled for serializing inst
system.switch_cpus.rename.serializingInsts            0                       # count of serializing insts renamed
system.switch_cpus.rename.skidInsts           4112201                       # count of insts added to the skid buffer
system.switch_cpus.rename.tempSerializingInsts            0                       # count of temporary serializing insts renamed
system.switch_cpus.rob.rob_reads             20996741                       # The number of ROB reads
system.switch_cpus.rob.rob_writes            34582292                       # The number of ROB writes
system.switch_cpus.timesIdled                     147                       # Number of times that the entire CPU went into an idle state and unscheduled itself
system.tol2bus.snoop_filter.hit_multi_requests            0                       # Number of requests hitting in the snoop filter with multiple (>1) holders of the requested data.
system.tol2bus.snoop_filter.hit_multi_snoops            0                       # Number of snoops hitting in the snoop filter with multiple (>1) holders of the requested data.
system.tol2bus.snoop_filter.hit_single_requests        24564                       # Number of requests hitting in the snoop filter with a single holder of the requested data.
system.tol2bus.snoop_filter.hit_single_snoops           81                       # Number of snoops hitting in the snoop filter with a single holder of the requested data.
system.tol2bus.snoop_filter.tot_requests        50278                       # Total number of requests made to the snoop filter.
system.tol2bus.snoop_filter.tot_snoops             81                       # Total number of snoops made to the snoop filter.
system.membus.pwrStateResidencyTicks::UNDEFINED 70892824465500                       # Cumulative time (in ticks) in various power states
system.membus.trans_dist::ReadResp                706                       # Transaction distribution
system.membus.trans_dist::WritebackDirty           38                       # Transaction distribution
system.membus.trans_dist::CleanEvict                9                       # Transaction distribution
system.membus.trans_dist::ReadExReq              2336                       # Transaction distribution
system.membus.trans_dist::ReadExResp             2336                       # Transaction distribution
system.membus.trans_dist::ReadSharedReq           706                       # Transaction distribution
system.membus.pkt_count_system.l2.mem_side::system.mem_ctrls.port         6131                       # Packet count per connected master and slave (bytes)
system.membus.pkt_count_system.l2.mem_side::total         6131                       # Packet count per connected master and slave (bytes)
system.membus.pkt_count::total                   6131                       # Packet count per connected master and slave (bytes)
system.membus.pkt_size_system.l2.mem_side::system.mem_ctrls.port       197120                       # Cumulative packet size per connected master and slave (bytes)
system.membus.pkt_size_system.l2.mem_side::total       197120                       # Cumulative packet size per connected master and slave (bytes)
system.membus.pkt_size::total                  197120                       # Cumulative packet size per connected master and slave (bytes)
system.membus.snoops                                0                       # Total snoops (count)
system.membus.snoopTraffic                          0                       # Total snoop traffic (bytes)
system.membus.snoop_fanout::samples              3042                       # Request fanout histogram
system.membus.snoop_fanout::mean                    0                       # Request fanout histogram
system.membus.snoop_fanout::stdev                   0                       # Request fanout histogram
system.membus.snoop_fanout::underflows              0      0.00%      0.00% # Request fanout histogram
system.membus.snoop_fanout::0                    3042    100.00%    100.00% # Request fanout histogram
system.membus.snoop_fanout::1                       0      0.00%    100.00% # Request fanout histogram
system.membus.snoop_fanout::overflows               0      0.00%    100.00% # Request fanout histogram
system.membus.snoop_fanout::min_value               0                       # Request fanout histogram
system.membus.snoop_fanout::max_value               0                       # Request fanout histogram
system.membus.snoop_fanout::total                3042                       # Request fanout histogram
system.membus.reqLayer2.occupancy             3891000                       # Layer occupancy (ticks)
system.membus.reqLayer2.utilization               0.1                       # Layer utilization (%)
system.membus.respLayer1.occupancy           16178500                       # Layer occupancy (ticks)
system.membus.respLayer1.utilization              0.6                       # Layer utilization (%)
system.switch_cpus.pwrStateResidencyTicks::OFF   2615189250                       # Cumulative time (in ticks) in various power states
system.switch_cpus.dtb.walker.pwrStateResidencyTicks::UNDEFINED 70892824465500                       # Cumulative time (in ticks) in various power states
system.switch_cpus.itb.walker.pwrStateResidencyTicks::UNDEFINED 70892824465500                       # Cumulative time (in ticks) in various power states
system.tol2bus.pwrStateResidencyTicks::UNDEFINED 70892824465500                       # Cumulative time (in ticks) in various power states
system.tol2bus.trans_dist::ReadResp              5831                       # Transaction distribution
system.tol2bus.trans_dist::WritebackDirty        19597                       # Transaction distribution
system.tol2bus.trans_dist::WritebackClean          217                       # Transaction distribution
system.tol2bus.trans_dist::CleanEvict            4873                       # Transaction distribution
system.tol2bus.trans_dist::ReadExReq            19883                       # Transaction distribution
system.tol2bus.trans_dist::ReadExResp           19882                       # Transaction distribution
system.tol2bus.trans_dist::ReadCleanReq           342                       # Transaction distribution
system.tol2bus.trans_dist::ReadSharedReq         5489                       # Transaction distribution
system.tol2bus.pkt_count_system.cpu.icache.mem_side::system.l2.cpu_side          901                       # Packet count per connected master and slave (bytes)
system.tol2bus.pkt_count_system.cpu.dcache.mem_side::system.l2.cpu_side        75090                       # Packet count per connected master and slave (bytes)
system.tol2bus.pkt_count::total                 75991                       # Packet count per connected master and slave (bytes)
system.tol2bus.pkt_size_system.cpu.icache.mem_side::system.l2.cpu_side        35776                       # Cumulative packet size per connected master and slave (bytes)
system.tol2bus.pkt_size_system.cpu.dcache.mem_side::system.l2.cpu_side      2875520                       # Cumulative packet size per connected master and slave (bytes)
system.tol2bus.pkt_size::total                2911296                       # Cumulative packet size per connected master and slave (bytes)
system.tol2bus.snoops                             123                       # Total snoops (count)
system.tol2bus.snoopTraffic                      2432                       # Total snoop traffic (bytes)
system.tol2bus.snoop_fanout::samples            25837                       # Request fanout histogram
system.tol2bus.snoop_fanout::mean            0.003135                       # Request fanout histogram
system.tol2bus.snoop_fanout::stdev           0.055905                       # Request fanout histogram
system.tol2bus.snoop_fanout::underflows             0      0.00%      0.00% # Request fanout histogram
system.tol2bus.snoop_fanout::0                  25756     99.69%     99.69% # Request fanout histogram
system.tol2bus.snoop_fanout::1                     81      0.31%    100.00% # Request fanout histogram
system.tol2bus.snoop_fanout::2                      0      0.00%    100.00% # Request fanout histogram
system.tol2bus.snoop_fanout::3                      0      0.00%    100.00% # Request fanout histogram
system.tol2bus.snoop_fanout::4                      0      0.00%    100.00% # Request fanout histogram
system.tol2bus.snoop_fanout::overflows              0      0.00%    100.00% # Request fanout histogram
system.tol2bus.snoop_fanout::min_value              0                       # Request fanout histogram
system.tol2bus.snoop_fanout::max_value              1                       # Request fanout histogram
system.tol2bus.snoop_fanout::total              25837                       # Request fanout histogram
system.tol2bus.reqLayer0.occupancy           44911000                       # Layer occupancy (ticks)
system.tol2bus.reqLayer0.utilization              1.7                       # Layer utilization (%)
system.tol2bus.respLayer1.occupancy          38047500                       # Layer occupancy (ticks)
system.tol2bus.respLayer1.utilization             1.5                       # Layer utilization (%)
system.tol2bus.respLayer0.occupancy            510499                       # Layer occupancy (ticks)
system.tol2bus.respLayer0.utilization             0.0                       # Layer utilization (%)
system.voltage_domain.voltage                       1                       # Voltage in Volts
system.clk_domain.clock                          1000                       # Clock period in ticks
system.l2.pwrStateResidencyTicks::UNDEFINED 70892824465500                       # Cumulative time (in ticks) in various power states
system.l2.demand_hits::.switch_cpus.inst          210                       # number of demand (read+write) hits
system.l2.demand_hits::.switch_cpus.data        22462                       # number of demand (read+write) hits
system.l2.demand_hits::total                    22672                       # number of demand (read+write) hits
system.l2.overall_hits::.switch_cpus.inst          210                       # number of overall hits
system.l2.overall_hits::.switch_cpus.data        22462                       # number of overall hits
system.l2.overall_hits::total                   22672                       # number of overall hits
system.l2.demand_misses::.cpu.inst                  2                       # number of demand (read+write) misses
system.l2.demand_misses::.cpu.data                  6                       # number of demand (read+write) misses
system.l2.demand_misses::.switch_cpus.inst          130                       # number of demand (read+write) misses
system.l2.demand_misses::.switch_cpus.data         2904                       # number of demand (read+write) misses
system.l2.demand_misses::total                   3042                       # number of demand (read+write) misses
system.l2.overall_misses::.cpu.inst                 2                       # number of overall misses
system.l2.overall_misses::.cpu.data                 6                       # number of overall misses
system.l2.overall_misses::.switch_cpus.inst          130                       # number of overall misses
system.l2.overall_misses::.switch_cpus.data         2904                       # number of overall misses
system.l2.overall_misses::total                  3042                       # number of overall misses
system.l2.demand_miss_latency::.switch_cpus.inst     10182500                       # number of demand (read+write) miss cycles
system.l2.demand_miss_latency::.switch_cpus.data    231424500                       # number of demand (read+write) miss cycles
system.l2.demand_miss_latency::total        241607000                       # number of demand (read+write) miss cycles
system.l2.overall_miss_latency::.switch_cpus.inst     10182500                       # number of overall miss cycles
system.l2.overall_miss_latency::.switch_cpus.data    231424500                       # number of overall miss cycles
system.l2.overall_miss_latency::total       241607000                       # number of overall miss cycles
system.l2.demand_accesses::.cpu.inst                2                       # number of demand (read+write) accesses
system.l2.demand_accesses::.cpu.data                6                       # number of demand (read+write) accesses
system.l2.demand_accesses::.switch_cpus.inst          340                       # number of demand (read+write) accesses
system.l2.demand_accesses::.switch_cpus.data        25366                       # number of demand (read+write) accesses
system.l2.demand_accesses::total                25714                       # number of demand (read+write) accesses
system.l2.overall_accesses::.cpu.inst               2                       # number of overall (read+write) accesses
system.l2.overall_accesses::.cpu.data               6                       # number of overall (read+write) accesses
system.l2.overall_accesses::.switch_cpus.inst          340                       # number of overall (read+write) accesses
system.l2.overall_accesses::.switch_cpus.data        25366                       # number of overall (read+write) accesses
system.l2.overall_accesses::total               25714                       # number of overall (read+write) accesses
system.l2.demand_miss_rate::.cpu.inst               1                       # miss rate for demand accesses
system.l2.demand_miss_rate::.cpu.data               1                       # miss rate for demand accesses
system.l2.demand_miss_rate::.switch_cpus.inst     0.382353                       # miss rate for demand accesses
system.l2.demand_miss_rate::.switch_cpus.data     0.114484                       # miss rate for demand accesses
system.l2.demand_miss_rate::total            0.118301                       # miss rate for demand accesses
system.l2.overall_miss_rate::.cpu.inst              1                       # miss rate for overall accesses
system.l2.overall_miss_rate::.cpu.data              1                       # miss rate for overall accesses
system.l2.overall_miss_rate::.switch_cpus.inst     0.382353                       # miss rate for overall accesses
system.l2.overall_miss_rate::.switch_cpus.data     0.114484                       # miss rate for overall accesses
system.l2.overall_miss_rate::total           0.118301                       # miss rate for overall accesses
system.l2.demand_avg_miss_latency::.switch_cpus.inst 78326.923077                       # average overall miss latency
system.l2.demand_avg_miss_latency::.switch_cpus.data 79691.632231                       # average overall miss latency
system.l2.demand_avg_miss_latency::total 79423.734385                       # average overall miss latency
system.l2.overall_avg_miss_latency::.switch_cpus.inst 78326.923077                       # average overall miss latency
system.l2.overall_avg_miss_latency::.switch_cpus.data 79691.632231                       # average overall miss latency
system.l2.overall_avg_miss_latency::total 79423.734385                       # average overall miss latency
system.l2.blocked_cycles::no_mshrs                  0                       # number of cycles access was blocked
system.l2.blocked_cycles::no_targets                0                       # number of cycles access was blocked
system.l2.blocked::no_mshrs                         0                       # number of cycles access was blocked
system.l2.blocked::no_targets                       0                       # number of cycles access was blocked
system.l2.avg_blocked_cycles::no_mshrs            nan                       # average number of cycles each access was blocked
system.l2.avg_blocked_cycles::no_targets          nan                       # average number of cycles each access was blocked
system.l2.writebacks::.writebacks                  38                       # number of writebacks
system.l2.writebacks::total                        38                       # number of writebacks
system.l2.demand_mshr_misses::.switch_cpus.inst          130                       # number of demand (read+write) MSHR misses
system.l2.demand_mshr_misses::.switch_cpus.data         2904                       # number of demand (read+write) MSHR misses
system.l2.demand_mshr_misses::total              3034                       # number of demand (read+write) MSHR misses
system.l2.overall_mshr_misses::.switch_cpus.inst          130                       # number of overall MSHR misses
system.l2.overall_mshr_misses::.switch_cpus.data         2904                       # number of overall MSHR misses
system.l2.overall_mshr_misses::total             3034                       # number of overall MSHR misses
system.l2.demand_mshr_miss_latency::.switch_cpus.inst      8882500                       # number of demand (read+write) MSHR miss cycles
system.l2.demand_mshr_miss_latency::.switch_cpus.data    202384500                       # number of demand (read+write) MSHR miss cycles
system.l2.demand_mshr_miss_latency::total    211267000                       # number of demand (read+write) MSHR miss cycles
system.l2.overall_mshr_miss_latency::.switch_cpus.inst      8882500                       # number of overall MSHR miss cycles
system.l2.overall_mshr_miss_latency::.switch_cpus.data    202384500                       # number of overall MSHR miss cycles
system.l2.overall_mshr_miss_latency::total    211267000                       # number of overall MSHR miss cycles
system.l2.demand_mshr_miss_rate::.switch_cpus.inst     0.382353                       # mshr miss rate for demand accesses
system.l2.demand_mshr_miss_rate::.switch_cpus.data     0.114484                       # mshr miss rate for demand accesses
system.l2.demand_mshr_miss_rate::total       0.117990                       # mshr miss rate for demand accesses
system.l2.overall_mshr_miss_rate::.switch_cpus.inst     0.382353                       # mshr miss rate for overall accesses
system.l2.overall_mshr_miss_rate::.switch_cpus.data     0.114484                       # mshr miss rate for overall accesses
system.l2.overall_mshr_miss_rate::total      0.117990                       # mshr miss rate for overall accesses
system.l2.demand_avg_mshr_miss_latency::.switch_cpus.inst 68326.923077                       # average overall mshr miss latency
system.l2.demand_avg_mshr_miss_latency::.switch_cpus.data 69691.632231                       # average overall mshr miss latency
system.l2.demand_avg_mshr_miss_latency::total 69633.157548                       # average overall mshr miss latency
system.l2.overall_avg_mshr_miss_latency::.switch_cpus.inst 68326.923077                       # average overall mshr miss latency
system.l2.overall_avg_mshr_miss_latency::.switch_cpus.data 69691.632231                       # average overall mshr miss latency
system.l2.overall_avg_mshr_miss_latency::total 69633.157548                       # average overall mshr miss latency
system.l2.replacements                            123                       # number of replacements
system.l2.WritebackDirty_hits::.writebacks        19559                       # number of WritebackDirty hits
system.l2.WritebackDirty_hits::total            19559                       # number of WritebackDirty hits
system.l2.WritebackDirty_accesses::.writebacks        19559                       # number of WritebackDirty accesses(hits+misses)
system.l2.WritebackDirty_accesses::total        19559                       # number of WritebackDirty accesses(hits+misses)
system.l2.WritebackClean_hits::.writebacks          217                       # number of WritebackClean hits
system.l2.WritebackClean_hits::total              217                       # number of WritebackClean hits
system.l2.WritebackClean_accesses::.writebacks          217                       # number of WritebackClean accesses(hits+misses)
system.l2.WritebackClean_accesses::total          217                       # number of WritebackClean accesses(hits+misses)
system.l2.CleanEvict_mshr_misses::.writebacks            5                       # number of CleanEvict MSHR misses
system.l2.CleanEvict_mshr_misses::total             5                       # number of CleanEvict MSHR misses
system.l2.CleanEvict_mshr_miss_rate::.writebacks          inf                       # mshr miss rate for CleanEvict accesses
system.l2.CleanEvict_mshr_miss_rate::total          inf                       # mshr miss rate for CleanEvict accesses
system.l2.ReadExReq_hits::.switch_cpus.data        17547                       # number of ReadExReq hits
system.l2.ReadExReq_hits::total                 17547                       # number of ReadExReq hits
system.l2.ReadExReq_misses::.cpu.data               2                       # number of ReadExReq misses
system.l2.ReadExReq_misses::.switch_cpus.data         2334                       # number of ReadExReq misses
system.l2.ReadExReq_misses::total                2336                       # number of ReadExReq misses
system.l2.ReadExReq_miss_latency::.switch_cpus.data    182909500                       # number of ReadExReq miss cycles
system.l2.ReadExReq_miss_latency::total     182909500                       # number of ReadExReq miss cycles
system.l2.ReadExReq_accesses::.cpu.data             2                       # number of ReadExReq accesses(hits+misses)
system.l2.ReadExReq_accesses::.switch_cpus.data        19881                       # number of ReadExReq accesses(hits+misses)
system.l2.ReadExReq_accesses::total             19883                       # number of ReadExReq accesses(hits+misses)
system.l2.ReadExReq_miss_rate::.cpu.data            1                       # miss rate for ReadExReq accesses
system.l2.ReadExReq_miss_rate::.switch_cpus.data     0.117399                       # miss rate for ReadExReq accesses
system.l2.ReadExReq_miss_rate::total         0.117487                       # miss rate for ReadExReq accesses
system.l2.ReadExReq_avg_miss_latency::.switch_cpus.data 78367.395030                       # average ReadExReq miss latency
system.l2.ReadExReq_avg_miss_latency::total 78300.299658                       # average ReadExReq miss latency
system.l2.ReadExReq_mshr_misses::.switch_cpus.data         2334                       # number of ReadExReq MSHR misses
system.l2.ReadExReq_mshr_misses::total           2334                       # number of ReadExReq MSHR misses
system.l2.ReadExReq_mshr_miss_latency::.switch_cpus.data    159569500                       # number of ReadExReq MSHR miss cycles
system.l2.ReadExReq_mshr_miss_latency::total    159569500                       # number of ReadExReq MSHR miss cycles
system.l2.ReadExReq_mshr_miss_rate::.switch_cpus.data     0.117399                       # mshr miss rate for ReadExReq accesses
system.l2.ReadExReq_mshr_miss_rate::total     0.117387                       # mshr miss rate for ReadExReq accesses
system.l2.ReadExReq_avg_mshr_miss_latency::.switch_cpus.data 68367.395030                       # average ReadExReq mshr miss latency
system.l2.ReadExReq_avg_mshr_miss_latency::total 68367.395030                       # average ReadExReq mshr miss latency
system.l2.ReadCleanReq_hits::.switch_cpus.inst          210                       # number of ReadCleanReq hits
system.l2.ReadCleanReq_hits::total                210                       # number of ReadCleanReq hits
system.l2.ReadCleanReq_misses::.cpu.inst            2                       # number of ReadCleanReq misses
system.l2.ReadCleanReq_misses::.switch_cpus.inst          130                       # number of ReadCleanReq misses
system.l2.ReadCleanReq_misses::total              132                       # number of ReadCleanReq misses
system.l2.ReadCleanReq_miss_latency::.switch_cpus.inst     10182500                       # number of ReadCleanReq miss cycles
system.l2.ReadCleanReq_miss_latency::total     10182500                       # number of ReadCleanReq miss cycles
system.l2.ReadCleanReq_accesses::.cpu.inst            2                       # number of ReadCleanReq accesses(hits+misses)
system.l2.ReadCleanReq_accesses::.switch_cpus.inst          340                       # number of ReadCleanReq accesses(hits+misses)
system.l2.ReadCleanReq_accesses::total            342                       # number of ReadCleanReq accesses(hits+misses)
system.l2.ReadCleanReq_miss_rate::.cpu.inst            1                       # miss rate for ReadCleanReq accesses
system.l2.ReadCleanReq_miss_rate::.switch_cpus.inst     0.382353                       # miss rate for ReadCleanReq accesses
[...]
system.cpu.dtb_walker_cache.pwrStateResidencyTicks::UNDEFINED 70900631332000                       # Cumulative time (in ticks) in various power states
system.cpu.dtb_walker_cache.blocked_cycles::no_mshrs            0                       # number of cycles access was blocked
system.cpu.dtb_walker_cache.blocked_cycles::no_targets            0                       # number of cycles access was blocked
system.cpu.dtb_walker_cache.blocked::no_mshrs            0                       # number of cycles access was blocked
system.cpu.dtb_walker_cache.blocked::no_targets            0                       # number of cycles access was blocked
system.cpu.dtb_walker_cache.avg_blocked_cycles::no_mshrs          nan                       # average number of cycles each access was blocked
system.cpu.dtb_walker_cache.avg_blocked_cycles::no_targets          nan                       # average number of cycles each access was blocked
system.cpu.dtb_walker_cache.replacements            0                       # number of replacements
system.cpu.dtb_walker_cache.tags.pwrStateResidencyTicks::UNDEFINED 70900631332000                       # Cumulative time (in ticks) in various power states
system.cpu.dtb_walker_cache.tags.tagsinuse            0                       # Cycle average of tags in use
system.cpu.dtb_walker_cache.tags.total_refs            0                       # Total number of references to valid blocks.
system.cpu.dtb_walker_cache.tags.sampled_refs            0                       # Sample count of references to valid blocks.
system.cpu.dtb_walker_cache.tags.avg_refs          nan                       # Average number of references to valid blocks.
system.cpu.dtb_walker_cache.tags.warmup_cycle            0                       # Cycle when the warmup percentage was hit.
system.cpu.dtb_walker_cache.tags.tag_accesses            0                       # Number of tag accesses
system.cpu.dtb_walker_cache.tags.data_accesses            0                       # Number of data accesses
system.cpu.dcache.pwrStateResidencyTicks::UNDEFINED 70900631332000                       # Cumulative time (in ticks) in various power states
system.cpu.dcache.demand_hits::.cpu.data            1                       # number of demand (read+write) hits
system.cpu.dcache.demand_hits::.switch_cpus.data     18883661                       # number of demand (read+write) hits
system.cpu.dcache.demand_hits::total         18883662                       # number of demand (read+write) hits
system.cpu.dcache.overall_hits::.cpu.data            1                       # number of overall hits
system.cpu.dcache.overall_hits::.switch_cpus.data     18931892                       # number of overall hits
system.cpu.dcache.overall_hits::total        18931893                       # number of overall hits
system.cpu.dcache.demand_misses::.cpu.data            6                       # number of demand (read+write) misses
system.cpu.dcache.demand_misses::.switch_cpus.data       106544                       # number of demand (read+write) misses
system.cpu.dcache.demand_misses::total         106550                       # number of demand (read+write) misses
system.cpu.dcache.overall_misses::.cpu.data            6                       # number of overall misses
system.cpu.dcache.overall_misses::.switch_cpus.data       109657                       # number of overall misses
system.cpu.dcache.overall_misses::total        109663                       # number of overall misses
system.cpu.dcache.demand_miss_latency::.switch_cpus.data   1875374487                       # number of demand (read+write) miss cycles
system.cpu.dcache.demand_miss_latency::total   1875374487                       # number of demand (read+write) miss cycles
system.cpu.dcache.overall_miss_latency::.switch_cpus.data   1875374487                       # number of overall miss cycles
system.cpu.dcache.overall_miss_latency::total   1875374487                       # number of overall miss cycles
system.cpu.dcache.demand_accesses::.cpu.data            7                       # number of demand (read+write) accesses
system.cpu.dcache.demand_accesses::.switch_cpus.data     18990205                       # number of demand (read+write) accesses
system.cpu.dcache.demand_accesses::total     18990212                       # number of demand (read+write) accesses
system.cpu.dcache.overall_accesses::.cpu.data            7                       # number of overall (read+write) accesses
system.cpu.dcache.overall_accesses::.switch_cpus.data     19041549                       # number of overall (read+write) accesses
system.cpu.dcache.overall_accesses::total     19041556                       # number of overall (read+write) accesses
system.cpu.dcache.demand_miss_rate::.cpu.data     0.857143                       # miss rate for demand accesses
system.cpu.dcache.demand_miss_rate::.switch_cpus.data     0.005610                       # miss rate for demand accesses
system.cpu.dcache.demand_miss_rate::total     0.005611                       # miss rate for demand accesses
system.cpu.dcache.overall_miss_rate::.cpu.data     0.857143                       # miss rate for overall accesses
system.cpu.dcache.overall_miss_rate::.switch_cpus.data     0.005759                       # miss rate for overall accesses
system.cpu.dcache.overall_miss_rate::total     0.005759                       # miss rate for overall accesses
system.cpu.dcache.demand_avg_miss_latency::.switch_cpus.data 17601.877975                       # average overall miss latency
system.cpu.dcache.demand_avg_miss_latency::total 17600.886786                       # average overall miss latency
system.cpu.dcache.overall_avg_miss_latency::.switch_cpus.data 17102.186700                       # average overall miss latency
system.cpu.dcache.overall_avg_miss_latency::total 17101.250987                       # average overall miss latency
system.cpu.dcache.blocked_cycles::no_mshrs         8296                       # number of cycles access was blocked
system.cpu.dcache.blocked_cycles::no_targets         1290                       # number of cycles access was blocked
system.cpu.dcache.blocked::no_mshrs               766                       # number of cycles access was blocked
system.cpu.dcache.blocked::no_targets               5                       # number of cycles access was blocked
system.cpu.dcache.avg_blocked_cycles::no_mshrs    10.830287                       # average number of cycles each access was blocked
system.cpu.dcache.avg_blocked_cycles::no_targets          258                       # average number of cycles each access was blocked
system.cpu.dcache.writebacks::.writebacks        85377                       # number of writebacks
system.cpu.dcache.writebacks::total             85377                       # number of writebacks
system.cpu.dcache.demand_mshr_hits::.switch_cpus.data         3600                       # number of demand (read+write) MSHR hits
system.cpu.dcache.demand_mshr_hits::total         3600                       # number of demand (read+write) MSHR hits
system.cpu.dcache.overall_mshr_hits::.switch_cpus.data         3600                       # number of overall MSHR hits
system.cpu.dcache.overall_mshr_hits::total         3600                       # number of overall MSHR hits
system.cpu.dcache.demand_mshr_misses::.switch_cpus.data       102944                       # number of demand (read+write) MSHR misses
system.cpu.dcache.demand_mshr_misses::total       102944                       # number of demand (read+write) MSHR misses
system.cpu.dcache.overall_mshr_misses::.switch_cpus.data       105013                       # number of overall MSHR misses
system.cpu.dcache.overall_mshr_misses::total       105013                       # number of overall MSHR misses
system.cpu.dcache.demand_mshr_miss_latency::.switch_cpus.data   1698617487                       # number of demand (read+write) MSHR miss cycles
system.cpu.dcache.demand_mshr_miss_latency::total   1698617487                       # number of demand (read+write) MSHR miss cycles
system.cpu.dcache.overall_mshr_miss_latency::.switch_cpus.data   1753150487                       # number of overall MSHR miss cycles
system.cpu.dcache.overall_mshr_miss_latency::total   1753150487                       # number of overall MSHR miss cycles
system.cpu.dcache.demand_mshr_miss_rate::.switch_cpus.data     0.005421                       # mshr miss rate for demand accesses
system.cpu.dcache.demand_mshr_miss_rate::total     0.005421                       # mshr miss rate for demand accesses
system.cpu.dcache.overall_mshr_miss_rate::.switch_cpus.data     0.005515                       # mshr miss rate for overall accesses
system.cpu.dcache.overall_mshr_miss_rate::total     0.005515                       # mshr miss rate for overall accesses
system.cpu.dcache.demand_avg_mshr_miss_latency::.switch_cpus.data 16500.403006                       # average overall mshr miss latency
system.cpu.dcache.demand_avg_mshr_miss_latency::total 16500.403006                       # average overall mshr miss latency
system.cpu.dcache.overall_avg_mshr_miss_latency::.switch_cpus.data 16694.604354                       # average overall mshr miss latency
system.cpu.dcache.overall_avg_mshr_miss_latency::total 16694.604354                       # average overall mshr miss latency
system.cpu.dcache.replacements                 103995                       # number of replacements
system.cpu.dcache.ReadReq_hits::.cpu.data            1                       # number of ReadReq hits
system.cpu.dcache.ReadReq_hits::.switch_cpus.data     13351850                       # number of ReadReq hits
system.cpu.dcache.ReadReq_hits::total        13351851                       # number of ReadReq hits
system.cpu.dcache.ReadReq_misses::.cpu.data            4                       # number of ReadReq misses
system.cpu.dcache.ReadReq_misses::.switch_cpus.data        25215                       # number of ReadReq misses
system.cpu.dcache.ReadReq_misses::total         25219                       # number of ReadReq misses
system.cpu.dcache.ReadReq_miss_latency::.switch_cpus.data    431638500                       # number of ReadReq miss cycles
system.cpu.dcache.ReadReq_miss_latency::total    431638500                       # number of ReadReq miss cycles
system.cpu.dcache.ReadReq_accesses::.cpu.data            5                       # number of ReadReq accesses(hits+misses)
system.cpu.dcache.ReadReq_accesses::.switch_cpus.data     13377065                       # number of ReadReq accesses(hits+misses)
system.cpu.dcache.ReadReq_accesses::total     13377070                       # number of ReadReq accesses(hits+misses)
system.cpu.dcache.ReadReq_miss_rate::.cpu.data     0.800000                       # miss rate for ReadReq accesses
system.cpu.dcache.ReadReq_miss_rate::.switch_cpus.data     0.001885                       # miss rate for ReadReq accesses
system.cpu.dcache.ReadReq_miss_rate::total     0.001885                       # miss rate for ReadReq accesses
system.cpu.dcache.ReadReq_avg_miss_latency::.switch_cpus.data 17118.322427                       # average ReadReq miss latency
system.cpu.dcache.ReadReq_avg_miss_latency::total 17115.607280                       # average ReadReq miss latency
system.cpu.dcache.ReadReq_mshr_hits::.switch_cpus.data         3578                       # number of ReadReq MSHR hits
system.cpu.dcache.ReadReq_mshr_hits::total         3578                       # number of ReadReq MSHR hits
system.cpu.dcache.ReadReq_mshr_misses::.switch_cpus.data        21637                       # number of ReadReq MSHR misses
system.cpu.dcache.ReadReq_mshr_misses::total        21637                       # number of ReadReq MSHR misses
system.cpu.dcache.ReadReq_mshr_miss_latency::.switch_cpus.data    336590500                       # number of ReadReq MSHR miss cycles
system.cpu.dcache.ReadReq_mshr_miss_latency::total    336590500                       # number of ReadReq MSHR miss cycles
system.cpu.dcache.ReadReq_mshr_miss_rate::.switch_cpus.data     0.001617                       # mshr miss rate for ReadReq accesses
system.cpu.dcache.ReadReq_mshr_miss_rate::total     0.001617                       # mshr miss rate for ReadReq accesses
system.cpu.dcache.ReadReq_avg_mshr_miss_latency::.switch_cpus.data 15556.246245                       # average ReadReq mshr miss latency
system.cpu.dcache.ReadReq_avg_mshr_miss_latency::total 15556.246245                       # average ReadReq mshr miss latency
system.cpu.dcache.WriteReq_hits::.switch_cpus.data      5531811                       # number of WriteReq hits
system.cpu.dcache.WriteReq_hits::total        5531811                       # number of WriteReq hits
system.cpu.dcache.WriteReq_misses::.cpu.data            2                       # number of WriteReq misses
system.cpu.dcache.WriteReq_misses::.switch_cpus.data        81329                       # number of WriteReq misses
system.cpu.dcache.WriteReq_misses::total        81331                       # number of WriteReq misses
system.cpu.dcache.WriteReq_miss_latency::.switch_cpus.data   1443735987                       # number of WriteReq miss cycles
system.cpu.dcache.WriteReq_miss_latency::total   1443735987                       # number of WriteReq miss cycles
system.cpu.dcache.WriteReq_accesses::.cpu.data            2                       # number of WriteReq accesses(hits+misses)
system.cpu.dcache.WriteReq_accesses::.switch_cpus.data      5613140                       # number of WriteReq accesses(hits+misses)
system.cpu.dcache.WriteReq_accesses::total      5613142                       # number of WriteReq accesses(hits+misses)
system.cpu.dcache.WriteReq_miss_rate::.cpu.data            1                       # miss rate for WriteReq accesses
system.cpu.dcache.WriteReq_miss_rate::.switch_cpus.data     0.014489                       # miss rate for WriteReq accesses
system.cpu.dcache.WriteReq_miss_rate::total     0.014489                       # miss rate for WriteReq accesses
system.cpu.dcache.WriteReq_avg_miss_latency::.switch_cpus.data 17751.798092                       # average WriteReq miss latency
system.cpu.dcache.WriteReq_avg_miss_latency::total 17751.361560                       # average WriteReq miss latency
system.cpu.dcache.WriteReq_mshr_hits::.switch_cpus.data           22                       # number of WriteReq MSHR hits
system.cpu.dcache.WriteReq_mshr_hits::total           22                       # number of WriteReq MSHR hits
system.cpu.dcache.WriteReq_mshr_misses::.switch_cpus.data        81307                       # number of WriteReq MSHR misses
system.cpu.dcache.WriteReq_mshr_misses::total        81307                       # number of WriteReq MSHR misses
system.cpu.dcache.WriteReq_mshr_miss_latency::.switch_cpus.data   1362026987                       # number of WriteReq MSHR miss cycles
system.cpu.dcache.WriteReq_mshr_miss_latency::total   1362026987                       # number of WriteReq MSHR miss cycles
system.cpu.dcache.WriteReq_mshr_miss_rate::.switch_cpus.data     0.014485                       # mshr miss rate for WriteReq accesses
system.cpu.dcache.WriteReq_mshr_miss_rate::total     0.014485                       # mshr miss rate for WriteReq accesses
system.cpu.dcache.WriteReq_avg_mshr_miss_latency::.switch_cpus.data 16751.657139                       # average WriteReq mshr miss latency
system.cpu.dcache.WriteReq_avg_mshr_miss_latency::total 16751.657139                       # average WriteReq mshr miss latency
system.cpu.dcache.SoftPFReq_hits::.switch_cpus.data        48231                       # number of SoftPFReq hits
system.cpu.dcache.SoftPFReq_hits::total         48231                       # number of SoftPFReq hits
system.cpu.dcache.SoftPFReq_misses::.switch_cpus.data         3113                       # number of SoftPFReq misses
system.cpu.dcache.SoftPFReq_misses::total         3113                       # number of SoftPFReq misses
system.cpu.dcache.SoftPFReq_accesses::.switch_cpus.data        51344                       # number of SoftPFReq accesses(hits+misses)
system.cpu.dcache.SoftPFReq_accesses::total        51344                       # number of SoftPFReq accesses(hits+misses)
system.cpu.dcache.SoftPFReq_miss_rate::.switch_cpus.data     0.060630                       # miss rate for SoftPFReq accesses
system.cpu.dcache.SoftPFReq_miss_rate::total     0.060630                       # miss rate for SoftPFReq accesses
system.cpu.dcache.SoftPFReq_mshr_misses::.switch_cpus.data         2069                       # number of SoftPFReq MSHR misses
system.cpu.dcache.SoftPFReq_mshr_misses::total         2069                       # number of SoftPFReq MSHR misses
system.cpu.dcache.SoftPFReq_mshr_miss_latency::.switch_cpus.data     54533000                       # number of SoftPFReq MSHR miss cycles
system.cpu.dcache.SoftPFReq_mshr_miss_latency::total     54533000                       # number of SoftPFReq MSHR miss cycles
system.cpu.dcache.SoftPFReq_mshr_miss_rate::.switch_cpus.data     0.040297                       # mshr miss rate for SoftPFReq accesses
system.cpu.dcache.SoftPFReq_mshr_miss_rate::total     0.040297                       # mshr miss rate for SoftPFReq accesses
system.cpu.dcache.SoftPFReq_avg_mshr_miss_latency::.switch_cpus.data 26357.177380                       # average SoftPFReq mshr miss latency
system.cpu.dcache.SoftPFReq_avg_mshr_miss_latency::total 26357.177380                       # average SoftPFReq mshr miss latency
system.cpu.dcache.tags.pwrStateResidencyTicks::UNDEFINED 70900631332000                       # Cumulative time (in ticks) in various power states
system.cpu.dcache.tags.tagsinuse             0.149338                       # Cycle average of tags in use
system.cpu.dcache.tags.total_refs            19036912                       # Total number of references to valid blocks.
system.cpu.dcache.tags.sampled_refs            105019                       # Sample count of references to valid blocks.
system.cpu.dcache.tags.avg_refs            181.271122                       # Average number of references to valid blocks.
system.cpu.dcache.tags.warmup_cycle      70890209278500                       # Cycle when the warmup percentage was hit.
system.cpu.dcache.tags.occ_blocks::.cpu.data     0.000390                       # Average occupied blocks per requestor
system.cpu.dcache.tags.occ_blocks::.switch_cpus.data     0.148948                       # Average occupied blocks per requestor
system.cpu.dcache.tags.occ_percent::.cpu.data     0.000000                       # Average percentage of cache occupancy
system.cpu.dcache.tags.occ_percent::.switch_cpus.data     0.000145                       # Average percentage of cache occupancy
system.cpu.dcache.tags.occ_percent::total     0.000146                       # Average percentage of cache occupancy
system.cpu.dcache.tags.occ_task_id_blocks::1024         1024                       # Occupied blocks per task id
system.cpu.dcache.tags.age_task_id_blocks_1024::0            9                       # Occupied blocks per task id
system.cpu.dcache.tags.age_task_id_blocks_1024::1          532                       # Occupied blocks per task id
system.cpu.dcache.tags.age_task_id_blocks_1024::2          447                       # Occupied blocks per task id
system.cpu.dcache.tags.age_task_id_blocks_1024::3           36                       # Occupied blocks per task id
system.cpu.dcache.tags.occ_task_id_percent::1024            1                       # Percentage of cache occupancy per task id
system.cpu.dcache.tags.tag_accesses          38188131                       # Number of tag accesses
system.cpu.dcache.tags.data_accesses         38188131                       # Number of data accesses

---------- End Simulation Statistics   ----------
