
---------- Begin Simulation Statistics ----------
final_tick                               359104138796500                       # Number of ticks from beginning of simulation (restored from checkpoints and never reset)
host_inst_rate                                  46361                       # Simulator instruction rate (inst/s)
host_mem_usage                                 805272                       # Number of bytes of host memory used
host_op_rate                                    78240                       # Simulator op (including micro ops) rate (op/s)
host_seconds                                   215.70                       # Real time elapsed on the host
host_tick_rate                               44649888                       # Simulator tick rate (ticks/s)
sim_freq                                 1000000000000                       # Frequency of simulated ticks
sim_insts                                    10000009                       # Number of instructions simulated
sim_ops                                      16876344                       # Number of ops (including micro ops) simulated
sim_seconds                                  0.009631                       # Number of seconds simulated
sim_ticks                                  9630956500                       # Number of ticks simulated
system.cpu.Branches                                 1                       # Number of branches fetched
system.cpu.committedInsts                           8                       # Number of instructions committed
system.cpu.committedOps                            16                       # Number of ops (including micro ops) committed
system.cpu.dtb.rdAccesses                           4                       # TLB accesses on read requests
system.cpu.dtb.rdMisses                             0                       # TLB misses on read requests
system.cpu.dtb.wrAccesses                           0                       # TLB accesses on write requests
system.cpu.dtb.wrMisses                             0                       # TLB misses on write requests
system.cpu.idle_fraction                            0                       # Percentage of idle cycles
system.cpu.itb.rdAccesses                           0                       # TLB accesses on read requests
system.cpu.itb.rdMisses                             0                       # TLB misses on read requests
system.cpu.itb.wrAccesses                          12                       # TLB accesses on write requests
system.cpu.itb.wrMisses                             0                       # TLB misses on write requests
system.cpu.not_idle_fraction                        1                       # Percentage of non-idle cycles
system.cpu.numCycles                               20                       # number of cpu cycles simulated
system.cpu.numWorkItemsCompleted                    0                       # number of work items this cpu completed
system.cpu.numWorkItemsStarted                      0                       # number of work items this cpu started
system.cpu.num_busy_cycles                         20                       # Number of busy cycles
system.cpu.num_cc_register_reads                    5                       # number of times the CC registers were read
system.cpu.num_conditional_control_insts            1                       # number of instructions that are conditional controls
system.cpu.num_fp_alu_accesses                     13                       # Number of float alu accesses
system.cpu.num_fp_insts                            13                       # number of float instructions
system.cpu.num_fp_register_reads                   20                       # number of times the floating registers were read
system.cpu.num_fp_register_writes                  13                       # number of times the floating registers were written
system.cpu.num_func_calls                           0                       # number of times a function call or return occured
system.cpu.num_idle_cycles                          0                       # Number of idle cycles
system.cpu.num_int_alu_accesses                     6                       # Number of integer alu accesses
system.cpu.num_int_insts                            6                       # number of integer instructions
system.cpu.num_int_register_reads                  13                       # number of times the integer registers were read
system.cpu.num_int_register_writes                  2                       # number of times the integer registers were written
system.cpu.num_load_insts                           3                       # Number of load instructions
system.cpu.num_mem_refs                             3                       # number of memory refs
system.cpu.num_store_insts                          0                       # Number of store instructions
system.cpu.num_vec_alu_accesses                     0                       # Number of vector alu accesses
system.cpu.num_vec_insts                            0                       # number of vector instructions
system.cpu.num_vec_register_reads                   0                       # number of times the vector registers were read
system.cpu.num_vec_register_writes                  0                       # number of times the vector registers were written
system.cpu.op_class::No_OpClass                     0      0.00%      0.00% # Class of executed instruction
system.cpu.op_class::IntAlu                         5     31.25%     31.25% # Class of executed instruction
system.cpu.op_class::IntMult                        0      0.00%     31.25% # Class of executed instruction
system.cpu.op_class::IntDiv                         0      0.00%     31.25% # Class of executed instruction
system.cpu.op_class::FloatAdd                       2     12.50%     43.75% # Class of executed instruction
system.cpu.op_class::FloatCmp                       0      0.00%     43.75% # Class of executed instruction
system.cpu.op_class::FloatCvt                       0      0.00%     43.75% # Class of executed instruction
system.cpu.op_class::FloatMult                      0      0.00%     43.75% # Class of executed instruction
system.cpu.op_class::FloatMultAcc                   0      0.00%     43.75% # Class of executed instruction
system.cpu.op_class::FloatDiv                       0      0.00%     43.75% # Class of executed instruction
system.cpu.op_class::FloatMisc                      0      0.00%     43.75% # Class of executed instruction
system.cpu.op_class::FloatSqrt                      0      0.00%     43.75% # Class of executed instruction
system.cpu.op_class::SimdAdd                        0      0.00%     43.75% # Class of executed instruction
system.cpu.op_class::SimdAddAcc                     0      0.00%     43.75% # Class of executed instruction
system.cpu.op_class::SimdAlu                        2     12.50%     56.25% # Class of executed instruction
system.cpu.op_class::SimdCmp                        0      0.00%     56.25% # Class of executed instruction
system.cpu.op_class::SimdCvt                        0      0.00%     56.25% # Class of executed instruction
system.cpu.op_class::SimdMisc                       0      0.00%     56.25% # Class of executed instruction
system.cpu.op_class::SimdMult                       0      0.00%     56.25% # Class of executed instruction
system.cpu.op_class::SimdMultAcc                    0      0.00%     56.25% # Class of executed instruction
system.cpu.op_class::SimdShift                      0      0.00%     56.25% # Class of executed instruction
system.cpu.op_class::SimdShiftAcc                   0      0.00%     56.25% # Class of executed instruction
system.cpu.op_class::SimdDiv                        0      0.00%     56.25% # Class of executed instruction
system.cpu.op_class::SimdSqrt                       0      0.00%     56.25% # Class of executed instruction
system.cpu.op_class::SimdFloatAdd                   3     18.75%     75.00% # Class of executed instruction
system.cpu.op_class::SimdFloatAlu                   0      0.00%     75.00% # Class of executed instruction
system.cpu.op_class::SimdFloatCmp                   0      0.00%     75.00% # Class of executed instruction
system.cpu.op_class::SimdFloatCvt                   0      0.00%     75.00% # Class of executed instruction
system.cpu.op_class::SimdFloatDiv                   0      0.00%     75.00% # Class of executed instruction
system.cpu.op_class::SimdFloatMisc                  0      0.00%     75.00% # Class of executed instruction
system.cpu.op_class::SimdFloatMult                  1      6.25%     81.25% # Class of executed instruction
system.cpu.op_class::SimdFloatMultAcc               0      0.00%     81.25% # Class of executed instruction
system.cpu.op_class::SimdFloatSqrt                  0      0.00%     81.25% # Class of executed instruction
system.cpu.op_class::SimdReduceAdd                  0      0.00%     81.25% # Class of executed instruction
system.cpu.op_class::SimdReduceAlu                  0      0.00%     81.25% # Class of executed instruction
system.cpu.op_class::SimdReduceCmp                  0      0.00%     81.25% # Class of executed instruction
system.cpu.op_class::SimdFloatReduceAdd             0      0.00%     81.25% # Class of executed instruction
system.cpu.op_class::SimdFloatReduceCmp             0      0.00%     81.25% # Class of executed instruction
system.cpu.op_class::SimdAes                        0      0.00%     81.25% # Class of executed instruction
system.cpu.op_class::SimdAesMix                     0      0.00%     81.25% # Class of executed instruction
system.cpu.op_class::SimdSha1Hash                   0      0.00%     81.25% # Class of executed instruction
system.cpu.op_class::SimdSha1Hash2                  0      0.00%     81.25% # Class of executed instruction
system.cpu.op_class::SimdSha256Hash                 0      0.00%     81.25% # Class of executed instruction
system.cpu.op_class::SimdSha256Hash2                0      0.00%     81.25% # Class of executed instruction
system.cpu.op_class::SimdShaSigma2                  0      0.00%     81.25% # Class of executed instruction
system.cpu.op_class::SimdShaSigma3                  0      0.00%     81.25% # Class of executed instruction
system.cpu.op_class::SimdPredAlu                    0      0.00%     81.25% # Class of executed instruction
system.cpu.op_class::MemRead                        0      0.00%     81.25% # Class of executed instruction
system.cpu.op_class::MemWrite                       0      0.00%     81.25% # Class of executed instruction
system.cpu.op_class::FloatMemRead                   3     18.75%    100.00% # Class of executed instruction
system.cpu.op_class::FloatMemWrite                  0      0.00%    100.00% # Class of executed instruction
system.cpu.op_class::IprAccess                      0      0.00%    100.00% # Class of executed instruction
system.cpu.op_class::InstPrefetch                   0      0.00%    100.00% # Class of executed instruction
system.cpu.op_class::total                         16                       # Class of executed instruction
system.cpu.workload.numSyscalls                     0                       # Number of system calls
system.membus.snoop_filter.hit_multi_requests            0                       # Number of requests hitting in the snoop filter with multiple (>1) holders of the requested data.
system.membus.snoop_filter.hit_multi_snoops            0                       # Number of snoops hitting in the snoop filter with multiple (>1) holders of the requested data.
system.membus.snoop_filter.hit_single_requests       176069                       # Number of requests hitting in the snoop filter with a single holder of the requested data.
system.membus.snoop_filter.hit_single_snoops            0                       # Number of snoops hitting in the snoop filter with a single holder of the requested data.
system.membus.snoop_filter.tot_requests        354919                       # Total number of requests made to the snoop filter.
system.membus.snoop_filter.tot_snoops               0                       # Total number of snoops made to the snoop filter.
system.switch_cpus.branchPred.BTBCorrect            0                       # Number of correct BTB predictions (this stat may not work properly.
system.switch_cpus.branchPred.BTBHitPct      0.000000                       # BTB Hit Percentage
system.switch_cpus.branchPred.BTBHits               0                       # Number of BTB hits
system.switch_cpus.branchPred.BTBLookups      1366774                       # Number of BTB lookups
system.switch_cpus.branchPred.RASInCorrect           32                       # Number of incorrect RAS predictions.
system.switch_cpus.branchPred.condIncorrect        77465                       # Number of conditional branches incorrect
system.switch_cpus.branchPred.condPredicted      1406669                       # Number of conditional branches predicted
system.switch_cpus.branchPred.indirectHits      1017250                       # Number of indirect target hits.
system.switch_cpus.branchPred.indirectLookups      1366774                       # Number of indirect predictor lookups.
system.switch_cpus.branchPred.indirectMisses       349524                       # Number of indirect misses.
system.switch_cpus.branchPred.lookups         1509026                       # Number of BP lookups
system.switch_cpus.branchPred.usedRAS           49981                       # Number of times the RAS was used to get a target.
system.switch_cpus.branchPredindirectMispredicted        20355                       # Number of mispredicted indirect branches.
system.switch_cpus.cc_regfile_reads           6490385                       # number of cc regfile reads
system.switch_cpus.cc_regfile_writes          4462204                       # number of cc regfile writes
system.switch_cpus.commit.amos                      0                       # Number of atomic instructions committed
system.switch_cpus.commit.branchMispredicts        77539                       # The number of times a branch was mispredicted
system.switch_cpus.commit.branches            1049066                       # Number of branches committed
system.switch_cpus.commit.bw_lim_events       1448084                       # number cycles where commit BW limit reached
system.switch_cpus.commit.commitSquashedInsts      3102410                       # The number of squashed insts skipped by commit
system.switch_cpus.commit.committedInsts     10000001                       # Number of instructions committed
system.switch_cpus.commit.committedOps       16876328                       # Number of ops (including micro ops) committed
system.switch_cpus.commit.committed_per_cycle::samples     18766810                       # Number of insts commited each cycle
system.switch_cpus.commit.committed_per_cycle::mean     0.899265                       # Number of insts commited each cycle
system.switch_cpus.commit.committed_per_cycle::stdev     2.285097                       # Number of insts commited each cycle
system.switch_cpus.commit.committed_per_cycle::underflows            0      0.00%      0.00% # Number of insts commited each cycle
system.switch_cpus.commit.committed_per_cycle::0     15346519     81.77%     81.77% # Number of insts commited each cycle
system.switch_cpus.commit.committed_per_cycle::1       879496      4.69%     86.46% # Number of insts commited each cycle
system.switch_cpus.commit.committed_per_cycle::2       137548      0.73%     87.19% # Number of insts commited each cycle
system.switch_cpus.commit.committed_per_cycle::3       220063      1.17%     88.37% # Number of insts commited each cycle
system.switch_cpus.commit.committed_per_cycle::4       389017      2.07%     90.44% # Number of insts commited each cycle
system.switch_cpus.commit.committed_per_cycle::5       211708      1.13%     91.57% # Number of insts commited each cycle
system.switch_cpus.commit.committed_per_cycle::6        78358      0.42%     91.99% # Number of insts commited each cycle
system.switch_cpus.commit.committed_per_cycle::7        56017      0.30%     92.28% # Number of insts commited each cycle
system.switch_cpus.commit.committed_per_cycle::8      1448084      7.72%    100.00% # Number of insts commited each cycle
system.switch_cpus.commit.committed_per_cycle::overflows            0      0.00%    100.00% # Number of insts commited each cycle
system.switch_cpus.commit.committed_per_cycle::min_value            0                       # Number of insts commited each cycle
system.switch_cpus.commit.committed_per_cycle::max_value            8                       # Number of insts commited each cycle
system.switch_cpus.commit.committed_per_cycle::total     18766810                       # Number of insts commited each cycle
system.switch_cpus.commit.fp_insts            8713194                       # Number of committed floating point instructions.
system.switch_cpus.commit.function_calls        26226                       # Number of function calls committed.
system.switch_cpus.commit.int_insts          10019631                       # Number of committed integer instructions.
system.switch_cpus.commit.loads               2743170                       # Number of loads committed
system.switch_cpus.commit.membars                   0                       # Number of memory barriers committed
system.switch_cpus.commit.op_class_0::No_OpClass        27517      0.16%      0.16% # Class of committed instruction
system.switch_cpus.commit.op_class_0::IntAlu      7410720     43.91%     44.07% # Class of committed instruction
system.switch_cpus.commit.op_class_0::IntMult          119      0.00%     44.08% # Class of committed instruction
system.switch_cpus.commit.op_class_0::IntDiv           56      0.00%     44.08% # Class of committed instruction
system.switch_cpus.commit.op_class_0::FloatAdd       891416      5.28%     49.36% # Class of committed instruction
system.switch_cpus.commit.op_class_0::FloatCmp            0      0.00%     49.36% # Class of committed instruction
system.switch_cpus.commit.op_class_0::FloatCvt            0      0.00%     49.36% # Class of committed instruction
system.switch_cpus.commit.op_class_0::FloatMult            0      0.00%     49.36% # Class of committed instruction
system.switch_cpus.commit.op_class_0::FloatMultAcc            0      0.00%     49.36% # Class of committed instruction
system.switch_cpus.commit.op_class_0::FloatDiv            0      0.00%     49.36% # Class of committed instruction
system.switch_cpus.commit.op_class_0::FloatMisc            0      0.00%     49.36% # Class of committed instruction
system.switch_cpus.commit.op_class_0::FloatSqrt            0      0.00%     49.36% # Class of committed instruction
system.switch_cpus.commit.op_class_0::SimdAdd            0      0.00%     49.36% # Class of committed instruction
system.switch_cpus.commit.op_class_0::SimdAddAcc            0      0.00%     49.36% # Class of committed instruction
system.switch_cpus.commit.op_class_0::SimdAlu      1379320      8.17%     57.53% # Class of committed instruction
system.switch_cpus.commit.op_class_0::SimdCmp            0      0.00%     57.53% # Class of committed instruction
system.switch_cpus.commit.op_class_0::SimdCvt            4      0.00%     57.53% # Class of committed instruction
system.switch_cpus.commit.op_class_0::SimdMisc        34436      0.20%     57.74% # Class of committed instruction
system.switch_cpus.commit.op_class_0::SimdMult            0      0.00%     57.74% # Class of committed instruction
system.switch_cpus.commit.op_class_0::SimdMultAcc            0      0.00%     57.74% # Class of committed instruction
system.switch_cpus.commit.op_class_0::SimdShift            0      0.00%     57.74% # Class of committed instruction
system.switch_cpus.commit.op_class_0::SimdShiftAcc            0      0.00%     57.74% # Class of committed instruction
system.switch_cpus.commit.op_class_0::SimdDiv            0      0.00%     57.74% # Class of committed instruction
system.switch_cpus.commit.op_class_0::SimdSqrt            0      0.00%     57.74% # Class of committed instruction
system.switch_cpus.commit.op_class_0::SimdFloatAdd      1310530      7.77%     65.50% # Class of committed instruction
system.switch_cpus.commit.op_class_0::SimdFloatAlu            0      0.00%     65.50% # Class of committed instruction
system.switch_cpus.commit.op_class_0::SimdFloatCmp        15450      0.09%     65.59% # Class of committed instruction
system.switch_cpus.commit.op_class_0::SimdFloatCvt      1398264      8.29%     73.88% # Class of committed instruction
system.switch_cpus.commit.op_class_0::SimdFloatDiv            0      0.00%     73.88% # Class of committed instruction
system.switch_cpus.commit.op_class_0::SimdFloatMisc            0      0.00%     73.88% # Class of committed instruction
system.switch_cpus.commit.op_class_0::SimdFloatMult      1344926      7.97%     81.85% # Class of committed instruction
system.switch_cpus.commit.op_class_0::SimdFloatMultAcc            0      0.00%     81.85% # Class of committed instruction
system.switch_cpus.commit.op_class_0::SimdFloatSqrt            0      0.00%     81.85% # Class of committed instruction
system.switch_cpus.commit.op_class_0::SimdReduceAdd            0      0.00%     81.85% # Class of committed instruction
system.switch_cpus.commit.op_class_0::SimdReduceAlu            0      0.00%     81.85% # Class of committed instruction
system.switch_cpus.commit.op_class_0::SimdReduceCmp            0      0.00%     81.85% # Class of committed instruction
system.switch_cpus.commit.op_class_0::SimdFloatReduceAdd            0      0.00%     81.85% # Class of committed instruction
system.switch_cpus.commit.op_class_0::SimdFloatReduceCmp            0      0.00%     81.85% # Class of committed instruction
system.switch_cpus.commit.op_class_0::SimdAes            0      0.00%     81.85% # Class of committed instruction
system.switch_cpus.commit.op_class_0::SimdAesMix            0      0.00%     81.85% # Class of committed instruction
system.switch_cpus.commit.op_class_0::SimdSha1Hash            0      0.00%     81.85% # Class of committed instruction
system.switch_cpus.commit.op_class_0::SimdSha1Hash2            0      0.00%     81.85% # Class of committed instruction
system.switch_cpus.commit.op_class_0::SimdSha256Hash            0      0.00%     81.85% # Class of committed instruction
system.switch_cpus.commit.op_class_0::SimdSha256Hash2            0      0.00%     81.85% # Class of committed instruction
system.switch_cpus.commit.op_class_0::SimdShaSigma2            0      0.00%     81.85% # Class of committed instruction
system.switch_cpus.commit.op_class_0::SimdShaSigma3            0      0.00%     81.85% # Class of committed instruction
system.switch_cpus.commit.op_class_0::SimdPredAlu            0      0.00%     81.85% # Class of committed instruction
system.switch_cpus.commit.op_class_0::MemRead       937733      5.56%     87.40% # Class of committed instruction
system.switch_cpus.commit.op_class_0::MemWrite       275299      1.63%     89.03% # Class of committed instruction
system.switch_cpus.commit.op_class_0::FloatMemRead      1805437     10.70%     99.73% # Class of committed instruction
system.switch_cpus.commit.op_class_0::FloatMemWrite        45101      0.27%    100.00% # Class of committed instruction
system.switch_cpus.commit.op_class_0::IprAccess            0      0.00%    100.00% # Class of committed instruction
system.switch_cpus.commit.op_class_0::InstPrefetch            0      0.00%    100.00% # Class of committed instruction
system.switch_cpus.commit.op_class_0::total     16876328                       # Class of committed instruction
system.switch_cpus.commit.refs                3063570                       # Number of memory references committed
system.switch_cpus.commit.swp_count                 0                       # Number of s/w prefetches committed
system.switch_cpus.commit.vec_insts                 0                       # Number of committed Vector instructions.
system.switch_cpus.committedInsts            10000001                       # Number of Instructions Simulated
system.switch_cpus.committedOps              16876328                       # Number of Ops (including micro ops) Simulated
system.switch_cpus.cpi                       1.926189                       # CPI: Cycles Per Instruction
system.switch_cpus.cpi_total                 1.926189                       # CPI: Total CPI of All Threads
system.switch_cpus.decode.BlockedCycles      14947639                       # Number of cycles decode is blocked
system.switch_cpus.decode.DecodedInsts       20909245                       # Number of instructions handled by decode
system.switch_cpus.decode.IdleCycles          1189761                       # Number of cycles decode is idle
system.switch_cpus.decode.RunCycles           2162619                       # Number of cycles decode is running
system.switch_cpus.decode.SquashCycles          77819                       # Number of cycles decode is squashing
system.switch_cpus.decode.UnblockCycles        824910                       # Number of cycles decode is unblocking
system.switch_cpus.dtb.rdAccesses             3226581                       # TLB accesses on read requests
system.switch_cpus.dtb.rdMisses                 15624                       # TLB misses on read requests
system.switch_cpus.dtb.wrAccesses              369521                       # TLB accesses on write requests
system.switch_cpus.dtb.wrMisses                  1277                       # TLB misses on write requests
system.switch_cpus.fetch.Branches             1509026                       # Number of branches that fetch encountered
system.switch_cpus.fetch.CacheLines           1744288                       # Number of cache lines fetched
system.switch_cpus.fetch.Cycles              17311243                       # Number of cycles fetch has run and was not squashing or blocked
system.switch_cpus.fetch.IcacheSquashes         16849                       # Number of outstanding Icache misses that were squashed
system.switch_cpus.fetch.IcacheWaitRetryStallCycles           41                       # Number of stall cycles due to full MSHR
system.switch_cpus.fetch.Insts               13119891                       # Number of instructions fetch has processed
system.switch_cpus.fetch.MiscStallCycles           69                       # Number of cycles fetch has spent waiting on interrupts, or bad addresses, or out of MSHRs
system.switch_cpus.fetch.PendingTrapStallCycles         3243                       # Number of stall cycles due to pending traps
system.switch_cpus.fetch.SquashCycles          155638                       # Number of cycles fetch has spent squashing
system.switch_cpus.fetch.branchRate          0.078343                       # Number of branch fetches per cycle
system.switch_cpus.fetch.icacheStallCycles      1810337                       # Number of cycles fetch is stalled on an Icache miss
system.switch_cpus.fetch.predictedBranches      1067231                       # Number of branches that fetch has predicted taken
system.switch_cpus.fetch.rate                0.681132                       # Number of inst fetches per cycle
system.switch_cpus.fetch.rateDist::samples     19202752                       # Number of instructions fetched each cycle (Total)
system.switch_cpus.fetch.rateDist::mean      1.157955                       # Number of instructions fetched each cycle (Total)
system.switch_cpus.fetch.rateDist::stdev     2.567050                       # Number of instructions fetched each cycle (Total)
system.switch_cpus.fetch.rateDist::underflows            0      0.00%      0.00% # Number of instructions fetched each cycle (Total)
system.switch_cpus.fetch.rateDist::0         15433983     80.37%     80.37% # Number of instructions fetched each cycle (Total)
system.switch_cpus.fetch.rateDist::1           279531      1.46%     81.83% # Number of instructions fetched each cycle (Total)
system.switch_cpus.fetch.rateDist::2           210552      1.10%     82.93% # Number of instructions fetched each cycle (Total)
system.switch_cpus.fetch.rateDist::3           227834      1.19%     84.11% # Number of instructions fetched each cycle (Total)
system.switch_cpus.fetch.rateDist::4           322164      1.68%     85.79% # Number of instructions fetched each cycle (Total)
system.switch_cpus.fetch.rateDist::5           388493      2.02%     87.81% # Number of instructions fetched each cycle (Total)
system.switch_cpus.fetch.rateDist::6           495595      2.58%     90.39% # Number of instructions fetched each cycle (Total)
system.switch_cpus.fetch.rateDist::7           109701      0.57%     90.97% # Number of instructions fetched each cycle (Total)
system.switch_cpus.fetch.rateDist::8          1734899      9.03%    100.00% # Number of instructions fetched each cycle (Total)
system.switch_cpus.fetch.rateDist::overflows            0      0.00%    100.00% # Number of instructions fetched each cycle (Total)
system.switch_cpus.fetch.rateDist::min_value            0                       # Number of instructions fetched each cycle (Total)
system.switch_cpus.fetch.rateDist::max_value            8                       # Number of instructions fetched each cycle (Total)
system.switch_cpus.fetch.rateDist::total     19202752                       # Number of instructions fetched each cycle (Total)
system.switch_cpus.fp_regfile_reads          14832449                       # number of floating regfile reads
system.switch_cpus.fp_regfile_writes          8824318                       # number of floating regfile writes
system.switch_cpus.idleCycles                   59141                       # Total number of cycles that the CPU has spent unscheduled due to idling
system.switch_cpus.iew.branchMispredicts        87667                       # Number of branch mispredicts detected at execute
system.switch_cpus.iew.exec_branches          1168483                       # Number of branches executed
system.switch_cpus.iew.exec_nop                     0                       # number of nop insts executed
system.switch_cpus.iew.exec_rate             0.985419                       # Inst execution rate
system.switch_cpus.iew.exec_refs              3690174                       # number of memory reference insts executed
system.switch_cpus.iew.exec_stores             369451                       # Number of stores executed
system.switch_cpus.iew.exec_swp                     0                       # number of swp insts executed
system.switch_cpus.iew.iewBlockCycles         7887220                       # Number of cycles IEW is blocking
system.switch_cpus.iew.iewDispLoadInsts       3317394                       # Number of dispatched load instructions
system.switch_cpus.iew.iewDispNonSpecInsts           29                       # Number of dispatched non-speculative instructions
system.switch_cpus.iew.iewDispSquashedInsts         7085                       # Number of squashed instructions skipped by dispatch
system.switch_cpus.iew.iewDispStoreInsts       433996                       # Number of dispatched store instructions
system.switch_cpus.iew.iewDispatchedInsts     19975721                       # Number of instructions dispatched to IQ
system.switch_cpus.iew.iewExecLoadInsts       3320723                       # Number of load instructions executed
system.switch_cpus.iew.iewExecSquashedInsts       142196                       # Number of squashed instructions skipped in execute
system.switch_cpus.iew.iewExecutedInsts      18981034                       # Number of executed instructions
system.switch_cpus.iew.iewIQFullEvents          83396                       # Number of times the IQ has become full, causing a stall
system.switch_cpus.iew.iewIdleCycles                0                       # Number of cycles IEW is idle
system.switch_cpus.iew.iewLSQFullEvents        637803                       # Number of times the LSQ has become full, causing a stall
system.switch_cpus.iew.iewSquashCycles          77819                       # Number of cycles IEW is squashing
system.switch_cpus.iew.iewUnblockCycles        770527                       # Number of cycles IEW is unblocking
system.switch_cpus.iew.lsq.thread0.blockedLoads            0                       # Number of blocked loads due to partial load-store forwarding
system.switch_cpus.iew.lsq.thread0.cacheBlocked        30086                       # Number of times an access to memory failed due to the cache being blocked
system.switch_cpus.iew.lsq.thread0.forwLoads        55993                       # Number of loads that had data forwarded from stores
system.switch_cpus.iew.lsq.thread0.ignoredResponses          411                       # Number of memory responses ignored because the instruction is squashed
system.switch_cpus.iew.lsq.thread0.invAddrLoads            0                       # Number of loads ignored due to an invalid address
system.switch_cpus.iew.lsq.thread0.invAddrSwpfs            0                       # Number of software prefetches ignored due to an invalid address
system.switch_cpus.iew.lsq.thread0.memOrderViolation          342                       # Number of memory ordering violations
system.switch_cpus.iew.lsq.thread0.rescheduledLoads          266                       # Number of loads that were rescheduled
system.switch_cpus.iew.lsq.thread0.squashedLoads       574205                       # Number of loads squashed
system.switch_cpus.iew.lsq.thread0.squashedStores       113596                       # Number of stores squashed
system.switch_cpus.iew.memOrderViolationEvents          342                       # Number of memory order violations
system.switch_cpus.iew.predictedNotTakenIncorrect        30689                       # Number of branches that were predicted not taken incorrectly
system.switch_cpus.iew.predictedTakenIncorrect        56978                       # Number of branches that were predicted taken incorrectly
system.switch_cpus.iew.wb_consumers          24091359                       # num instructions consuming a value
system.switch_cpus.iew.wb_count              18656987                       # cumulative count of insts written-back
system.switch_cpus.iew.wb_fanout             0.596810                       # average fanout of values written-back
system.switch_cpus.iew.wb_producers          14377971                       # num instructions producing a value
system.switch_cpus.iew.wb_rate               0.968596                       # insts written-back per cycle
system.switch_cpus.iew.wb_sent               18690293                       # cumulative count of insts sent to commit
system.switch_cpus.int_regfile_reads         17271059                       # number of integer regfile reads
system.switch_cpus.int_regfile_writes         8265471                       # number of integer regfile writes
system.switch_cpus.ipc                       0.519160                       # IPC: Instructions Per Cycle
system.switch_cpus.ipc_total                 0.519160                       # IPC: Total IPC of All Threads
system.switch_cpus.iq.FU_type_0::No_OpClass        39352      0.21%      0.21% # Type of FU issued
system.switch_cpus.iq.FU_type_0::IntAlu       8795806     46.00%     46.20% # Type of FU issued
system.switch_cpus.iq.FU_type_0::IntMult          214      0.00%     46.20% # Type of FU issued
system.switch_cpus.iq.FU_type_0::IntDiv            87      0.00%     46.20% # Type of FU issued
system.switch_cpus.iq.FU_type_0::FloatAdd       966797      5.06%     51.26% # Type of FU issued
system.switch_cpus.iq.FU_type_0::FloatCmp            0      0.00%     51.26% # Type of FU issued
system.switch_cpus.iq.FU_type_0::FloatCvt            0      0.00%     51.26% # Type of FU issued
system.switch_cpus.iq.FU_type_0::FloatMult            0      0.00%     51.26% # Type of FU issued
system.switch_cpus.iq.FU_type_0::FloatMultAcc            0      0.00%     51.26% # Type of FU issued
system.switch_cpus.iq.FU_type_0::FloatDiv            0      0.00%     51.26% # Type of FU issued
system.switch_cpus.iq.FU_type_0::FloatMisc            0      0.00%     51.26% # Type of FU issued
system.switch_cpus.iq.FU_type_0::FloatSqrt            0      0.00%     51.26% # Type of FU issued
system.switch_cpus.iq.FU_type_0::SimdAdd            0      0.00%     51.26% # Type of FU issued
system.switch_cpus.iq.FU_type_0::SimdAddAcc            0      0.00%     51.26% # Type of FU issued
system.switch_cpus.iq.FU_type_0::SimdAlu      1448766      7.58%     58.83% # Type of FU issued
system.switch_cpus.iq.FU_type_0::SimdCmp            0      0.00%     58.83% # Type of FU issued
system.switch_cpus.iq.FU_type_0::SimdCvt            8      0.00%     58.83% # Type of FU issued
system.switch_cpus.iq.FU_type_0::SimdMisc        35255      0.18%     59.02% # Type of FU issued
system.switch_cpus.iq.FU_type_0::SimdMult            0      0.00%     59.02% # Type of FU issued
system.switch_cpus.iq.FU_type_0::SimdMultAcc            0      0.00%     59.02% # Type of FU issued
system.switch_cpus.iq.FU_type_0::SimdShift            0      0.00%     59.02% # Type of FU issued
system.switch_cpus.iq.FU_type_0::SimdShiftAcc            0      0.00%     59.02% # Type of FU issued
system.switch_cpus.iq.FU_type_0::SimdDiv            0      0.00%     59.02% # Type of FU issued
system.switch_cpus.iq.FU_type_0::SimdSqrt            0      0.00%     59.02% # Type of FU issued
system.switch_cpus.iq.FU_type_0::SimdFloatAdd      1317119      6.89%     65.91% # Type of FU issued
system.switch_cpus.iq.FU_type_0::SimdFloatAlu            0      0.00%     65.91% # Type of FU issued
system.switch_cpus.iq.FU_type_0::SimdFloatCmp        15454      0.08%     65.99% # Type of FU issued
system.switch_cpus.iq.FU_type_0::SimdFloatCvt      1408922      7.37%     73.35% # Type of FU issued
system.switch_cpus.iq.FU_type_0::SimdFloatDiv            0      0.00%     73.35% # Type of FU issued
system.switch_cpus.iq.FU_type_0::SimdFloatMisc            0      0.00%     73.35% # Type of FU issued
system.switch_cpus.iq.FU_type_0::SimdFloatMult      1352138      7.07%     80.43% # Type of FU issued
system.switch_cpus.iq.FU_type_0::SimdFloatMultAcc            0      0.00%     80.43% # Type of FU issued
system.switch_cpus.iq.FU_type_0::SimdFloatSqrt            0      0.00%     80.43% # Type of FU issued
system.switch_cpus.iq.FU_type_0::SimdReduceAdd            0      0.00%     80.43% # Type of FU issued
system.switch_cpus.iq.FU_type_0::SimdReduceAlu            0      0.00%     80.43% # Type of FU issued
system.switch_cpus.iq.FU_type_0::SimdReduceCmp            0      0.00%     80.43% # Type of FU issued
system.switch_cpus.iq.FU_type_0::SimdFloatReduceAdd            0      0.00%     80.43% # Type of FU issued
system.switch_cpus.iq.FU_type_0::SimdFloatReduceCmp            0      0.00%     80.43% # Type of FU issued
system.switch_cpus.iq.FU_type_0::SimdAes            0      0.00%     80.43% # Type of FU issued
system.switch_cpus.iq.FU_type_0::SimdAesMix            0      0.00%     80.43% # Type of FU issued
system.switch_cpus.iq.FU_type_0::SimdSha1Hash            0      0.00%     80.43% # Type of FU issued
system.switch_cpus.iq.FU_type_0::SimdSha1Hash2            0      0.00%     80.43% # Type of FU issued
system.switch_cpus.iq.FU_type_0::SimdSha256Hash            0      0.00%     80.43% # Type of FU issued
system.switch_cpus.iq.FU_type_0::SimdSha256Hash2            0      0.00%     80.43% # Type of FU issued
system.switch_cpus.iq.FU_type_0::SimdShaSigma2            0      0.00%     80.43% # Type of FU issued
system.switch_cpus.iq.FU_type_0::SimdShaSigma3            0      0.00%     80.43% # Type of FU issued
system.switch_cpus.iq.FU_type_0::SimdPredAlu            0      0.00%     80.43% # Type of FU issued
system.switch_cpus.iq.FU_type_0::MemRead      1388148      7.26%     87.68% # Type of FU issued
system.switch_cpus.iq.FU_type_0::MemWrite       331660      1.73%     89.42% # Type of FU issued
system.switch_cpus.iq.FU_type_0::FloatMemRead      1977549     10.34%     99.76% # Type of FU issued
system.switch_cpus.iq.FU_type_0::FloatMemWrite        45957      0.24%    100.00% # Type of FU issued
system.switch_cpus.iq.FU_type_0::IprAccess            0      0.00%    100.00% # Type of FU issued
system.switch_cpus.iq.FU_type_0::InstPrefetch            0      0.00%    100.00% # Type of FU issued
system.switch_cpus.iq.FU_type_0::total       19123232                       # Type of FU issued
system.switch_cpus.iq.fp_alu_accesses         9280021                       # Number of floating point alu accesses
system.switch_cpus.iq.fp_inst_queue_reads     18355860                       # Number of floating instruction queue reads
system.switch_cpus.iq.fp_inst_queue_wakeup_accesses      8912821                       # Number of floating instruction queue wakeup accesses
system.switch_cpus.iq.fp_inst_queue_writes      9718761                       # Number of floating instruction queue writes
system.switch_cpus.iq.fu_busy_cnt              354574                       # FU busy when requested
system.switch_cpus.iq.fu_busy_rate           0.018542                       # FU busy rate (busy events/executed inst)
system.switch_cpus.iq.fu_full::No_OpClass            0      0.00%      0.00% # attempts to use FU when none available
system.switch_cpus.iq.fu_full::IntAlu          105466     29.74%     29.74% # attempts to use FU when none available
system.switch_cpus.iq.fu_full::IntMult              0      0.00%     29.74% # attempts to use FU when none available
system.switch_cpus.iq.fu_full::IntDiv               0      0.00%     29.74% # attempts to use FU when none available
system.switch_cpus.iq.fu_full::FloatAdd             0      0.00%     29.74% # attempts to use FU when none available
system.switch_cpus.iq.fu_full::FloatCmp             0      0.00%     29.74% # attempts to use FU when none available
system.switch_cpus.iq.fu_full::FloatCvt             0      0.00%     29.74% # attempts to use FU when none available
system.switch_cpus.iq.fu_full::FloatMult            0      0.00%     29.74% # attempts to use FU when none available
system.switch_cpus.iq.fu_full::FloatMultAcc            0      0.00%     29.74% # attempts to use FU when none available
system.switch_cpus.iq.fu_full::FloatDiv             0      0.00%     29.74% # attempts to use FU when none available
system.switch_cpus.iq.fu_full::FloatMisc            0      0.00%     29.74% # attempts to use FU when none available
system.switch_cpus.iq.fu_full::FloatSqrt            0      0.00%     29.74% # attempts to use FU when none available
system.switch_cpus.iq.fu_full::SimdAdd              0      0.00%     29.74% # attempts to use FU when none available
system.switch_cpus.iq.fu_full::SimdAddAcc            0      0.00%     29.74% # attempts to use FU when none available
system.switch_cpus.iq.fu_full::SimdAlu          61565     17.36%     47.11% # attempts to use FU when none available
system.switch_cpus.iq.fu_full::SimdCmp              0      0.00%     47.11% # attempts to use FU when none available
system.switch_cpus.iq.fu_full::SimdCvt              0      0.00%     47.11% # attempts to use FU when none available
system.switch_cpus.iq.fu_full::SimdMisc             0      0.00%     47.11% # attempts to use FU when none available
system.switch_cpus.iq.fu_full::SimdMult             0      0.00%     47.11% # attempts to use FU when none available
system.switch_cpus.iq.fu_full::SimdMultAcc            0      0.00%     47.11% # attempts to use FU when none available
system.switch_cpus.iq.fu_full::SimdShift            0      0.00%     47.11% # attempts to use FU when none available
system.switch_cpus.iq.fu_full::SimdShiftAcc            0      0.00%     47.11% # attempts to use FU when none available
system.switch_cpus.iq.fu_full::SimdDiv              0      0.00%     47.11% # attempts to use FU when none available
system.switch_cpus.iq.fu_full::SimdSqrt             0      0.00%     47.11% # attempts to use FU when none available
system.switch_cpus.iq.fu_full::SimdFloatAdd        84243     23.76%     70.87% # attempts to use FU when none available
system.switch_cpus.iq.fu_full::SimdFloatAlu            0      0.00%     70.87% # attempts to use FU when none available
system.switch_cpus.iq.fu_full::SimdFloatCmp            0      0.00%     70.87% # attempts to use FU when none available
system.switch_cpus.iq.fu_full::SimdFloatCvt        23365      6.59%     77.46% # attempts to use FU when none available
system.switch_cpus.iq.fu_full::SimdFloatDiv            0      0.00%     77.46% # attempts to use FU when none available
system.switch_cpus.iq.fu_full::SimdFloatMisc            0      0.00%     77.46% # attempts to use FU when none available
system.switch_cpus.iq.fu_full::SimdFloatMult         3238      0.91%     78.37% # attempts to use FU when none available
system.switch_cpus.iq.fu_full::SimdFloatMultAcc            0      0.00%     78.37% # attempts to use FU when none available
system.switch_cpus.iq.fu_full::SimdFloatSqrt            0      0.00%     78.37% # attempts to use FU when none available
system.switch_cpus.iq.fu_full::SimdReduceAdd            0      0.00%     78.37% # attempts to use FU when none available
system.switch_cpus.iq.fu_full::SimdReduceAlu            0      0.00%     78.37% # attempts to use FU when none available
system.switch_cpus.iq.fu_full::SimdReduceCmp            0      0.00%     78.37% # attempts to use FU when none available
system.switch_cpus.iq.fu_full::SimdFloatReduceAdd            0      0.00%     78.37% # attempts to use FU when none available
system.switch_cpus.iq.fu_full::SimdFloatReduceCmp            0      0.00%     78.37% # attempts to use FU when none available
system.switch_cpus.iq.fu_full::SimdAes              0      0.00%     78.37% # attempts to use FU when none available
system.switch_cpus.iq.fu_full::SimdAesMix            0      0.00%     78.37% # attempts to use FU when none available
system.switch_cpus.iq.fu_full::SimdSha1Hash            0      0.00%     78.37% # attempts to use FU when none available
system.switch_cpus.iq.fu_full::SimdSha1Hash2            0      0.00%     78.37% # attempts to use FU when none available
system.switch_cpus.iq.fu_full::SimdSha256Hash            0      0.00%     78.37% # attempts to use FU when none available
system.switch_cpus.iq.fu_full::SimdSha256Hash2            0      0.00%     78.37% # attempts to use FU when none available
system.switch_cpus.iq.fu_full::SimdShaSigma2            0      0.00%     78.37% # attempts to use FU when none available
system.switch_cpus.iq.fu_full::SimdShaSigma3            0      0.00%     78.37% # attempts to use FU when none available
system.switch_cpus.iq.fu_full::SimdPredAlu            0      0.00%     78.37% # attempts to use FU when none available
system.switch_cpus.iq.fu_full::MemRead          35151      9.91%     88.28% # attempts to use FU when none available
system.switch_cpus.iq.fu_full::MemWrite          6049      1.71%     89.99% # attempts to use FU when none available
system.switch_cpus.iq.fu_full::FloatMemRead        35410      9.99%     99.98% # attempts to use FU when none available
system.switch_cpus.iq.fu_full::FloatMemWrite           87      0.02%    100.00% # attempts to use FU when none available
system.switch_cpus.iq.fu_full::IprAccess            0      0.00%    100.00% # attempts to use FU when none available
system.switch_cpus.iq.fu_full::InstPrefetch            0      0.00%    100.00% # attempts to use FU when none available
system.switch_cpus.iq.int_alu_accesses       10158433                       # Number of integer alu accesses
system.switch_cpus.iq.int_inst_queue_reads     39499793                       # Number of integer instruction queue reads
system.switch_cpus.iq.int_inst_queue_wakeup_accesses      9744166                       # Number of integer instruction queue wakeup accesses
system.switch_cpus.iq.int_inst_queue_writes     13356552                       # Number of integer instruction queue writes
system.switch_cpus.iq.iqInstsAdded           19975634                       # Number of instructions added to the IQ (excludes non-spec)
system.switch_cpus.iq.iqInstsIssued          19123232                       # Number of instructions issued
system.switch_cpus.iq.iqNonSpecInstsAdded           87                       # Number of non-speculative instructions added to the IQ
system.switch_cpus.iq.iqSquashedInstsExamined      3099282                       # Number of squashed instructions iterated over during squash; mainly for profiling
system.switch_cpus.iq.iqSquashedInstsIssued        51865                       # Number of squashed instructions issued
system.switch_cpus.iq.iqSquashedNonSpecRemoved           87                       # Number of squashed non-spec instructions that were removed
system.switch_cpus.iq.iqSquashedOperandsExamined      4317434                       # Number of squashed operands that are examined and possibly removed from graph
system.switch_cpus.iq.issued_per_cycle::samples     19202752                       # Number of insts issued each cycle
system.switch_cpus.iq.issued_per_cycle::mean     0.995859                       # Number of insts issued each cycle
system.switch_cpus.iq.issued_per_cycle::stdev     1.880237                       # Number of insts issued each cycle
system.switch_cpus.iq.issued_per_cycle::underflows            0      0.00%      0.00% # Number of insts issued each cycle
system.switch_cpus.iq.issued_per_cycle::0     13347201     69.51%     69.51% # Number of insts issued each cycle
system.switch_cpus.iq.issued_per_cycle::1      1518570      7.91%     77.41% # Number of insts issued each cycle
system.switch_cpus.iq.issued_per_cycle::2      1074492      5.60%     83.01% # Number of insts issued each cycle
system.switch_cpus.iq.issued_per_cycle::3       905560      4.72%     87.73% # Number of insts issued each cycle
system.switch_cpus.iq.issued_per_cycle::4       797726      4.15%     91.88% # Number of insts issued each cycle
system.switch_cpus.iq.issued_per_cycle::5       558425      2.91%     94.79% # Number of insts issued each cycle
system.switch_cpus.iq.issued_per_cycle::6       472301      2.46%     97.25% # Number of insts issued each cycle
system.switch_cpus.iq.issued_per_cycle::7       305653      1.59%     98.84% # Number of insts issued each cycle
system.switch_cpus.iq.issued_per_cycle::8       222824      1.16%    100.00% # Number of insts issued each cycle
system.switch_cpus.iq.issued_per_cycle::overflows            0      0.00%    100.00% # Number of insts issued each cycle
system.switch_cpus.iq.issued_per_cycle::min_value            0                       # Number of insts issued each cycle
system.switch_cpus.iq.issued_per_cycle::max_value            8                       # Number of insts issued each cycle
system.switch_cpus.iq.issued_per_cycle::total     19202752                       # Number of insts issued each cycle
system.switch_cpus.iq.rate                   0.992801                       # Inst issue rate
system.switch_cpus.iq.vec_alu_accesses              0                       # Number of vector alu accesses
system.switch_cpus.iq.vec_inst_queue_reads            0                       # Number of vector instruction queue reads
system.switch_cpus.iq.vec_inst_queue_wakeup_accesses            0                       # Number of vector instruction queue wakeup accesses
system.switch_cpus.iq.vec_inst_queue_writes            0                       # Number of vector instruction queue writes
system.switch_cpus.itb.rdAccesses                   0                       # TLB accesses on read requests
system.switch_cpus.itb.rdMisses                     0                       # TLB misses on read requests
system.switch_cpus.itb.wrAccesses             1744674                       # TLB accesses on write requests
system.switch_cpus.itb.wrMisses                   425                       # TLB misses on write requests
system.switch_cpus.memDep0.conflictingLoads        59429                       # Number of conflicting loads.
system.switch_cpus.memDep0.conflictingStores        20844                       # Number of conflicting stores.
system.switch_cpus.memDep0.insertedLoads      3317394                       # Number of loads inserted to the mem dependence unit.
system.switch_cpus.memDep0.insertedStores       433996                       # Number of stores inserted to the mem dependence unit.
system.switch_cpus.misc_regfile_reads         6162976                       # number of misc regfile reads
system.switch_cpus.misc_regfile_writes              1                       # number of misc regfile writes
system.switch_cpus.numCycles                 19261893                       # number of cpu cycles simulated
system.switch_cpus.numWorkItemsCompleted            0                       # number of work items this cpu completed
system.switch_cpus.numWorkItemsStarted              0                       # number of work items this cpu started
system.switch_cpus.rename.BlockCycles        12230370                       # Number of cycles rename is blocking
system.switch_cpus.rename.CommittedMaps      19414366                       # Number of HB maps that are committed
system.switch_cpus.rename.IQFullEvents        1444394                       # Number of times rename has blocked due to IQ full
system.switch_cpus.rename.IdleCycles          1537517                       # Number of cycles rename is idle
system.switch_cpus.rename.LQFullEvents         603416                       # Number of times rename has blocked due to LQ full
system.switch_cpus.rename.ROBFullEvents        168830                       # Number of times rename has blocked due to ROB full
system.switch_cpus.rename.RenameLookups      49602555                       # Number of register rename lookups that rename has made
system.switch_cpus.rename.RenamedInsts       20543214                       # Number of instructions processed by rename
system.switch_cpus.rename.RenamedOperands     23800112                       # Number of destination operands rename has renamed
system.switch_cpus.rename.RunCycles           2580883                       # Number of cycles rename is running
system.switch_cpus.rename.SQFullEvents         467530                       # Number of times rename has blocked due to SQ full
system.switch_cpus.rename.SquashCycles          77819                       # Number of cycles rename is squashing
system.switch_cpus.rename.UnblockCycles       2776159                       # Number of cycles rename is unblocking
system.switch_cpus.rename.UndoneMaps          4385614                       # Number of HB maps that are undone due to squashing
system.switch_cpus.rename.fp_rename_lookups     15640233                       # Number of floating rename lookups
system.switch_cpus.rename.int_rename_lookups     19489396                       # Number of integer rename lookups
system.switch_cpus.rename.serializeStallCycles            0                       # count of cycles rename stalled for serializing inst
system.switch_cpus.rename.serializingInsts            0                       # count of serializing insts renamed
system.switch_cpus.rename.skidInsts           4355815                       # count of insts added to the skid buffer
system.switch_cpus.rename.tempSerializingInsts            0                       # count of temporary serializing insts renamed
system.switch_cpus.rob.rob_reads             37297464                       # The number of ROB reads
system.switch_cpus.rob.rob_writes            40394392                       # The number of ROB writes
system.switch_cpus.timesIdled                     643                       # Number of times that the entire CPU went into an idle state and unscheduled itself
system.tol2bus.snoop_filter.hit_multi_requests            0                       # Number of requests hitting in the snoop filter with multiple (>1) holders of the requested data.
system.tol2bus.snoop_filter.hit_multi_snoops            0                       # Number of snoops hitting in the snoop filter with multiple (>1) holders of the requested data.
system.tol2bus.snoop_filter.hit_single_requests       205656                       # Number of requests hitting in the snoop filter with a single holder of the requested data.
system.tol2bus.snoop_filter.hit_single_snoops       116026                       # Number of snoops hitting in the snoop filter with a single holder of the requested data.
system.tol2bus.snoop_filter.tot_requests       412800                       # Total number of requests made to the snoop filter.
system.tol2bus.snoop_filter.tot_snoops         116026                       # Total number of snoops made to the snoop filter.
system.membus.pwrStateResidencyTicks::UNDEFINED 359104138796500                       # Cumulative time (in ticks) in various power states
system.membus.trans_dist::ReadResp             169750                       # Transaction distribution
system.membus.trans_dist::WritebackDirty        17456                       # Transaction distribution
system.membus.trans_dist::CleanEvict           158613                       # Transaction distribution
system.membus.trans_dist::ReadExReq              9099                       # Transaction distribution
system.membus.trans_dist::ReadExResp             9099                       # Transaction distribution
system.membus.trans_dist::ReadSharedReq        169751                       # Transaction distribution
system.membus.pkt_count_system.l2.mem_side::system.mem_ctrls.port       533768                       # Packet count per connected master and slave (bytes)
system.membus.pkt_count_system.l2.mem_side::total       533768                       # Packet count per connected master and slave (bytes)
system.membus.pkt_count::total                 533768                       # Packet count per connected master and slave (bytes)
system.membus.pkt_size_system.l2.mem_side::system.mem_ctrls.port     12563520                       # Cumulative packet size per connected master and slave (bytes)
system.membus.pkt_size_system.l2.mem_side::total     12563520                       # Cumulative packet size per connected master and slave (bytes)
system.membus.pkt_size::total                12563520                       # Cumulative packet size per connected master and slave (bytes)
system.membus.snoops                                0                       # Total snoops (count)
system.membus.snoopTraffic                          0                       # Total snoop traffic (bytes)
system.membus.snoop_fanout::samples            178850                       # Request fanout histogram
system.membus.snoop_fanout::mean                    0                       # Request fanout histogram
system.membus.snoop_fanout::stdev                   0                       # Request fanout histogram
system.membus.snoop_fanout::underflows              0      0.00%      0.00% # Request fanout histogram
system.membus.snoop_fanout::0                  178850    100.00%    100.00% # Request fanout histogram
system.membus.snoop_fanout::1                       0      0.00%    100.00% # Request fanout histogram
system.membus.snoop_fanout::overflows               0      0.00%    100.00% # Request fanout histogram
system.membus.snoop_fanout::min_value               0                       # Request fanout histogram
system.membus.snoop_fanout::max_value               0                       # Request fanout histogram
system.membus.snoop_fanout::total              178850                       # Request fanout histogram
system.membus.reqLayer2.occupancy           461846000                       # Layer occupancy (ticks)
system.membus.reqLayer2.utilization               4.8                       # Layer utilization (%)
system.membus.respLayer1.occupancy          957887250                       # Layer occupancy (ticks)
system.membus.respLayer1.utilization              9.9                       # Layer utilization (%)
system.switch_cpus.pwrStateResidencyTicks::OFF   9630956500                       # Cumulative time (in ticks) in various power states
system.switch_cpus.dtb.walker.pwrStateResidencyTicks::UNDEFINED 359104138796500                       # Cumulative time (in ticks) in various power states
system.switch_cpus.itb.walker.pwrStateResidencyTicks::UNDEFINED 359104138796500                       # Cumulative time (in ticks) in various power states
system.tol2bus.pwrStateResidencyTicks::UNDEFINED 359104138796500                       # Cumulative time (in ticks) in various power states
system.tol2bus.trans_dist::ReadResp            197088                       # Transaction distribution
system.tol2bus.trans_dist::WritebackDirty        40145                       # Transaction distribution
system.tol2bus.trans_dist::WritebackClean          476                       # Transaction distribution
system.tol2bus.trans_dist::CleanEvict          357242                       # Transaction distribution
system.tol2bus.trans_dist::ReadExReq            10054                       # Transaction distribution
system.tol2bus.trans_dist::ReadExResp           10054                       # Transaction distribution
system.tol2bus.trans_dist::ReadCleanReq           938                       # Transaction distribution
system.tol2bus.trans_dist::ReadSharedReq       196152                       # Transaction distribution
system.tol2bus.pkt_count_system.cpu.icache.mem_side::system.l2.cpu_side         2352                       # Packet count per connected master and slave (bytes)
system.tol2bus.pkt_count_system.cpu.dcache.mem_side::system.l2.cpu_side       617590                       # Packet count per connected master and slave (bytes)
system.tol2bus.pkt_count::total                619942                       # Packet count per connected master and slave (bytes)
system.tol2bus.pkt_size_system.cpu.icache.mem_side::system.l2.cpu_side        90496                       # Cumulative packet size per connected master and slave (bytes)
system.tol2bus.pkt_size_system.cpu.dcache.mem_side::system.l2.cpu_side     14649152                       # Cumulative packet size per connected master and slave (bytes)
system.tol2bus.pkt_size::total               14739648                       # Cumulative packet size per connected master and slave (bytes)
system.tol2bus.snoops                          192207                       # Total snoops (count)
system.tol2bus.snoopTraffic                   1117184                       # Total snoop traffic (bytes)
system.tol2bus.snoop_fanout::samples           399351                       # Request fanout histogram
system.tol2bus.snoop_fanout::mean            0.290536                       # Request fanout histogram
system.tol2bus.snoop_fanout::stdev           0.454010                       # Request fanout histogram
system.tol2bus.snoop_fanout::underflows             0      0.00%      0.00% # Request fanout histogram
system.tol2bus.snoop_fanout::0                 283325     70.95%     70.95% # Request fanout histogram
system.tol2bus.snoop_fanout::1                 116026     29.05%    100.00% # Request fanout histogram
system.tol2bus.snoop_fanout::2                      0      0.00%    100.00% # Request fanout histogram
system.tol2bus.snoop_fanout::3                      0      0.00%    100.00% # Request fanout histogram
system.tol2bus.snoop_fanout::4                      0      0.00%    100.00% # Request fanout histogram
system.tol2bus.snoop_fanout::overflows              0      0.00%    100.00% # Request fanout histogram
system.tol2bus.snoop_fanout::min_value              0                       # Request fanout histogram
system.tol2bus.snoop_fanout::max_value              1                       # Request fanout histogram
system.tol2bus.snoop_fanout::total             399351                       # Request fanout histogram
system.tol2bus.reqLayer0.occupancy          229562500                       # Layer occupancy (ticks)
system.tol2bus.reqLayer0.utilization              2.4                       # Layer utilization (%)
system.tol2bus.respLayer1.occupancy         309301500                       # Layer occupancy (ticks)
system.tol2bus.respLayer1.utilization             3.2                       # Layer utilization (%)
system.tol2bus.respLayer0.occupancy           1404499                       # Layer occupancy (ticks)
system.tol2bus.respLayer0.utilization             0.0                       # Layer utilization (%)
system.voltage_domain.voltage                       1                       # Voltage in Volts
system.clk_domain.clock                          1000                       # Clock period in ticks
system.l2.pwrStateResidencyTicks::UNDEFINED 359104138796500                       # Cumulative time (in ticks) in various power states
system.l2.demand_hits::.switch_cpus.inst           45                       # number of demand (read+write) hits
system.l2.demand_hits::.switch_cpus.data        28248                       # number of demand (read+write) hits
system.l2.demand_hits::total                    28293                       # number of demand (read+write) hits
system.l2.overall_hits::.switch_cpus.inst           45                       # number of overall hits
system.l2.overall_hits::.switch_cpus.data        28248                       # number of overall hits
system.l2.overall_hits::total                   28293                       # number of overall hits
system.l2.demand_misses::.cpu.inst                  2                       # number of demand (read+write) misses
system.l2.demand_misses::.cpu.data                  3                       # number of demand (read+write) misses
system.l2.demand_misses::.switch_cpus.inst          891                       # number of demand (read+write) misses
system.l2.demand_misses::.switch_cpus.data       177955                       # number of demand (read+write) misses
system.l2.demand_misses::total                 178851                       # number of demand (read+write) misses
system.l2.overall_misses::.cpu.inst                 2                       # number of overall misses
system.l2.overall_misses::.cpu.data                 3                       # number of overall misses
system.l2.overall_misses::.switch_cpus.inst          891                       # number of overall misses
system.l2.overall_misses::.switch_cpus.data       177955                       # number of overall misses
system.l2.overall_misses::total                178851                       # number of overall misses
system.l2.demand_miss_latency::.switch_cpus.inst     75996500                       # number of demand (read+write) miss cycles
system.l2.demand_miss_latency::.switch_cpus.data  14894272500                       # number of demand (read+write) miss cycles
system.l2.demand_miss_latency::total      14970269000                       # number of demand (read+write) miss cycles
system.l2.overall_miss_latency::.switch_cpus.inst     75996500                       # number of overall miss cycles
system.l2.overall_miss_latency::.switch_cpus.data  14894272500                       # number of overall miss cycles
system.l2.overall_miss_latency::total     14970269000                       # number of overall miss cycles
system.l2.demand_accesses::.cpu.inst                2                       # number of demand (read+write) accesses
system.l2.demand_accesses::.cpu.data                3                       # number of demand (read+write) accesses
system.l2.demand_accesses::.switch_cpus.inst          936                       # number of demand (read+write) accesses
system.l2.demand_accesses::.switch_cpus.data       206203                       # number of demand (read+write) accesses
system.l2.demand_accesses::total               207144                       # number of demand (read+write) accesses
system.l2.overall_accesses::.cpu.inst               2                       # number of overall (read+write) accesses
system.l2.overall_accesses::.cpu.data               3                       # number of overall (read+write) accesses
system.l2.overall_accesses::.switch_cpus.inst          936                       # number of overall (read+write) accesses
system.l2.overall_accesses::.switch_cpus.data       206203                       # number of overall (read+write) accesses
system.l2.overall_accesses::total              207144                       # number of overall (read+write) accesses
system.l2.demand_miss_rate::.cpu.inst               1                       # miss rate for demand accesses
system.l2.demand_miss_rate::.cpu.data               1                       # miss rate for demand accesses
system.l2.demand_miss_rate::.switch_cpus.inst     0.951923                       # miss rate for demand accesses
system.l2.demand_miss_rate::.switch_cpus.data     0.863009                       # miss rate for demand accesses
system.l2.demand_miss_rate::total            0.863414                       # miss rate for demand accesses
system.l2.overall_miss_rate::.cpu.inst              1                       # miss rate for overall accesses
system.l2.overall_miss_rate::.cpu.data              1                       # miss rate for overall accesses
system.l2.overall_miss_rate::.switch_cpus.inst     0.951923                       # miss rate for overall accesses
system.l2.overall_miss_rate::.switch_cpus.data     0.863009                       # miss rate for overall accesses
system.l2.overall_miss_rate::total           0.863414                       # miss rate for overall accesses
system.l2.demand_avg_miss_latency::.switch_cpus.inst 85293.490460                       # average overall miss latency
system.l2.demand_avg_miss_latency::.switch_cpus.data 83696.847518                       # average overall miss latency
system.l2.demand_avg_miss_latency::total 83702.461826                       # average overall miss latency
system.l2.overall_avg_miss_latency::.switch_cpus.inst 85293.490460                       # average overall miss latency
system.l2.overall_avg_miss_latency::.switch_cpus.data 83696.847518                       # average overall miss latency
system.l2.overall_avg_miss_latency::total 83702.461826                       # average overall miss latency
system.l2.blocked_cycles::no_mshrs                  0                       # number of cycles access was blocked
system.l2.blocked_cycles::no_targets                0                       # number of cycles access was blocked
system.l2.blocked::no_mshrs                         0                       # number of cycles access was blocked
system.l2.blocked::no_targets                       0                       # number of cycles access was blocked
system.l2.avg_blocked_cycles::no_mshrs            nan                       # average number of cycles each access was blocked
system.l2.avg_blocked_cycles::no_targets          nan                       # average number of cycles each access was blocked
system.l2.writebacks::.writebacks               17456                       # number of writebacks
system.l2.writebacks::total                     17456                       # number of writebacks
system.l2.demand_mshr_misses::.switch_cpus.inst          891                       # number of demand (read+write) MSHR misses
system.l2.demand_mshr_misses::.switch_cpus.data       177955                       # number of demand (read+write) MSHR misses
system.l2.demand_mshr_misses::total            178846                       # number of demand (read+write) MSHR misses
system.l2.overall_mshr_misses::.switch_cpus.inst          891                       # number of overall MSHR misses
system.l2.overall_mshr_misses::.switch_cpus.data       177955                       # number of overall MSHR misses
system.l2.overall_mshr_misses::total           178846                       # number of overall MSHR misses
system.l2.demand_mshr_miss_latency::.switch_cpus.inst     67086500                       # number of demand (read+write) MSHR miss cycles
system.l2.demand_mshr_miss_latency::.switch_cpus.data  13114742500                       # number of demand (read+write) MSHR miss cycles
system.l2.demand_mshr_miss_latency::total  13181829000                       # number of demand (read+write) MSHR miss cycles
system.l2.overall_mshr_miss_latency::.switch_cpus.inst     67086500                       # number of overall MSHR miss cycles
system.l2.overall_mshr_miss_latency::.switch_cpus.data  13114742500                       # number of overall MSHR miss cycles
system.l2.overall_mshr_miss_latency::total  13181829000                       # number of overall MSHR miss cycles
system.l2.demand_mshr_miss_rate::.switch_cpus.inst     0.951923                       # mshr miss rate for demand accesses
system.l2.demand_mshr_miss_rate::.switch_cpus.data     0.863009                       # mshr miss rate for demand accesses
system.l2.demand_mshr_miss_rate::total       0.863390                       # mshr miss rate for demand accesses
system.l2.overall_mshr_miss_rate::.switch_cpus.inst     0.951923                       # mshr miss rate for overall accesses
system.l2.overall_mshr_miss_rate::.switch_cpus.data     0.863009                       # mshr miss rate for overall accesses
system.l2.overall_mshr_miss_rate::total      0.863390                       # mshr miss rate for overall accesses
system.l2.demand_avg_mshr_miss_latency::.switch_cpus.inst 75293.490460                       # average overall mshr miss latency
system.l2.demand_avg_mshr_miss_latency::.switch_cpus.data 73696.959906                       # average overall mshr miss latency
system.l2.demand_avg_mshr_miss_latency::total 73704.913725                       # average overall mshr miss latency
system.l2.overall_avg_mshr_miss_latency::.switch_cpus.inst 75293.490460                       # average overall mshr miss latency
system.l2.overall_avg_mshr_miss_latency::.switch_cpus.data 73696.959906                       # average overall mshr miss latency
system.l2.overall_avg_mshr_miss_latency::total 73704.913725                       # average overall mshr miss latency
system.l2.replacements                         192207                       # number of replacements
system.l2.WritebackDirty_hits::.writebacks        22689                       # number of WritebackDirty hits
system.l2.WritebackDirty_hits::total            22689                       # number of WritebackDirty hits
system.l2.WritebackDirty_accesses::.writebacks        22689                       # number of WritebackDirty accesses(hits+misses)
system.l2.WritebackDirty_accesses::total        22689                       # number of WritebackDirty accesses(hits+misses)
system.l2.WritebackClean_hits::.writebacks          476                       # number of WritebackClean hits
system.l2.WritebackClean_hits::total              476                       # number of WritebackClean hits
system.l2.WritebackClean_accesses::.writebacks          476                       # number of WritebackClean accesses(hits+misses)
system.l2.WritebackClean_accesses::total          476                       # number of WritebackClean accesses(hits+misses)
system.l2.CleanEvict_mshr_misses::.writebacks        99888                       # number of CleanEvict MSHR misses
system.l2.CleanEvict_mshr_misses::total         99888                       # number of CleanEvict MSHR misses
system.l2.CleanEvict_mshr_miss_rate::.writebacks          inf                       # mshr miss rate for CleanEvict accesses
system.l2.CleanEvict_mshr_miss_rate::total          inf                       # mshr miss rate for CleanEvict accesses
system.l2.ReadExReq_hits::.switch_cpus.data          955                       # number of ReadExReq hits
system.l2.ReadExReq_hits::total                   955                       # number of ReadExReq hits
system.l2.ReadExReq_misses::.switch_cpus.data         9099                       # number of ReadExReq misses
system.l2.ReadExReq_misses::total                9099                       # number of ReadExReq misses
system.l2.ReadExReq_miss_latency::.switch_cpus.data    754855500                       # number of ReadExReq miss cycles
system.l2.ReadExReq_miss_latency::total     754855500                       # number of ReadExReq miss cycles
system.l2.ReadExReq_accesses::.switch_cpus.data        10054                       # number of ReadExReq accesses(hits+misses)
system.l2.ReadExReq_accesses::total             10054                       # number of ReadExReq accesses(hits+misses)
system.l2.ReadExReq_miss_rate::.switch_cpus.data     0.905013                       # miss rate for ReadExReq accesses
system.l2.ReadExReq_miss_rate::total         0.905013                       # miss rate for ReadExReq accesses
system.l2.ReadExReq_avg_miss_latency::.switch_cpus.data 82960.270359                       # average ReadExReq miss latency
system.l2.ReadExReq_avg_miss_latency::total 82960.270359                       # average ReadExReq miss latency
system.l2.ReadExReq_mshr_misses::.switch_cpus.data         9099                       # number of ReadExReq MSHR misses
system.l2.ReadExReq_mshr_misses::total           9099                       # number of ReadExReq MSHR misses
system.l2.ReadExReq_mshr_miss_latency::.switch_cpus.data    663865500                       # number of ReadExReq MSHR miss cycles
system.l2.ReadExReq_mshr_miss_latency::total    663865500                       # number of ReadExReq MSHR miss cycles
system.l2.ReadExReq_mshr_miss_rate::.switch_cpus.data     0.905013                       # mshr miss rate for ReadExReq accesses
system.l2.ReadExReq_mshr_miss_rate::total     0.905013                       # mshr miss rate for ReadExReq accesses
system.l2.ReadExReq_avg_mshr_miss_latency::.switch_cpus.data 72960.270359                       # average ReadExReq mshr miss latency
system.l2.ReadExReq_avg_mshr_miss_latency::total 72960.270359                       # average ReadExReq mshr miss latency
system.l2.ReadCleanReq_hits::.switch_cpus.inst           45                       # number of ReadCleanReq hits
system.l2.ReadCleanReq_hits::total                 45                       # number of ReadCleanReq hits
system.l2.ReadCleanReq_misses::.cpu.inst            2                       # number of ReadCleanReq misses
system.l2.ReadCleanReq_misses::.switch_cpus.inst          891                       # number of ReadCleanReq misses
system.l2.ReadCleanReq_misses::total              893                       # number of ReadCleanReq misses
system.l2.ReadCleanReq_miss_latency::.switch_cpus.inst     75996500                       # number of ReadCleanReq miss cycles
system.l2.ReadCleanReq_miss_latency::total     75996500                       # number of ReadCleanReq miss cycles
system.l2.ReadCleanReq_accesses::.cpu.inst            2                       # number of ReadCleanReq accesses(hits+misses)
system.l2.ReadCleanReq_accesses::.switch_cpus.inst          936                       # number of ReadCleanReq accesses(hits+misses)
system.l2.ReadCleanReq_accesses::total            938                       # number of ReadCleanReq accesses(hits+misses)
system.l2.ReadCleanReq_miss_rate::.cpu.inst            1                       # miss rate for ReadCleanReq accesses
system.l2.ReadCleanReq_miss_rate::.switch_cpus.inst     0.951923                       # miss rate for ReadCleanReq accesses
system.l2.ReadCleanReq_miss_rate::total      0.952026                       # miss rate for ReadCleanReq accesses
system.l2.ReadCleanReq_avg_miss_latency::.switch_cpus.inst 85293.490460                       # average ReadCleanReq miss latency
[...]
system.cpu.icache.tags.data_accesses         13987017                       # Number of data accesses
system.cpu.dtb.walker.pwrStateResidencyTicks::UNDEFINED 359133317516500                       # Cumulative time (in ticks) in various power states
system.cpu.interrupts.clk_domain.clock           8000                       # Clock period in ticks
system.cpu.itb_walker_cache.pwrStateResidencyTicks::UNDEFINED 359133317516500                       # Cumulative time (in ticks) in various power states
system.cpu.itb_walker_cache.blocked_cycles::no_mshrs            0                       # number of cycles access was blocked
system.cpu.itb_walker_cache.blocked_cycles::no_targets            0                       # number of cycles access was blocked
system.cpu.itb_walker_cache.blocked::no_mshrs            0                       # number of cycles access was blocked
system.cpu.itb_walker_cache.blocked::no_targets            0                       # number of cycles access was blocked
system.cpu.itb_walker_cache.avg_blocked_cycles::no_mshrs          nan                       # average number of cycles each access was blocked
system.cpu.itb_walker_cache.avg_blocked_cycles::no_targets          nan                       # average number of cycles each access was blocked
system.cpu.itb_walker_cache.replacements            0                       # number of replacements
system.cpu.itb_walker_cache.tags.pwrStateResidencyTicks::UNDEFINED 359133317516500                       # Cumulative time (in ticks) in various power states
system.cpu.itb_walker_cache.tags.tagsinuse            0                       # Cycle average of tags in use
system.cpu.itb_walker_cache.tags.total_refs            0                       # Total number of references to valid blocks.
system.cpu.itb_walker_cache.tags.sampled_refs            0                       # Sample count of references to valid blocks.
system.cpu.itb_walker_cache.tags.avg_refs          nan                       # Average number of references to valid blocks.
system.cpu.itb_walker_cache.tags.warmup_cycle            0                       # Cycle when the warmup percentage was hit.
system.cpu.itb_walker_cache.tags.tag_accesses            0                       # Number of tag accesses
system.cpu.itb_walker_cache.tags.data_accesses            0                       # Number of data accesses
system.cpu.itb.walker.pwrStateResidencyTicks::UNDEFINED 359133317516500                       # Cumulative time (in ticks) in various power states
system.cpu.dtb_walker_cache.pwrStateResidencyTicks::UNDEFINED 359133317516500                       # Cumulative time (in ticks) in various power states
system.cpu.dtb_walker_cache.blocked_cycles::no_mshrs            0                       # number of cycles access was blocked
system.cpu.dtb_walker_cache.blocked_cycles::no_targets            0                       # number of cycles access was blocked
system.cpu.dtb_walker_cache.blocked::no_mshrs            0                       # number of cycles access was blocked
system.cpu.dtb_walker_cache.blocked::no_targets            0                       # number of cycles access was blocked
system.cpu.dtb_walker_cache.avg_blocked_cycles::no_mshrs          nan                       # average number of cycles each access was blocked
system.cpu.dtb_walker_cache.avg_blocked_cycles::no_targets          nan                       # average number of cycles each access was blocked
system.cpu.dtb_walker_cache.replacements            0                       # number of replacements
system.cpu.dtb_walker_cache.tags.pwrStateResidencyTicks::UNDEFINED 359133317516500                       # Cumulative time (in ticks) in various power states
system.cpu.dtb_walker_cache.tags.tagsinuse            0                       # Cycle average of tags in use
system.cpu.dtb_walker_cache.tags.total_refs            0                       # Total number of references to valid blocks.
system.cpu.dtb_walker_cache.tags.sampled_refs            0                       # Sample count of references to valid blocks.
system.cpu.dtb_walker_cache.tags.avg_refs          nan                       # Average number of references to valid blocks.
system.cpu.dtb_walker_cache.tags.warmup_cycle            0                       # Cycle when the warmup percentage was hit.
system.cpu.dtb_walker_cache.tags.tag_accesses            0                       # Number of tag accesses
system.cpu.dtb_walker_cache.tags.data_accesses            0                       # Number of data accesses
system.cpu.dcache.pwrStateResidencyTicks::UNDEFINED 359133317516500                       # Cumulative time (in ticks) in various power states
system.cpu.dcache.demand_hits::.cpu.data            1                       # number of demand (read+write) hits
system.cpu.dcache.demand_hits::.switch_cpus.data     10725290                       # number of demand (read+write) hits
system.cpu.dcache.demand_hits::total         10725291                       # number of demand (read+write) hits
system.cpu.dcache.overall_hits::.cpu.data            1                       # number of overall hits
system.cpu.dcache.overall_hits::.switch_cpus.data     10725290                       # number of overall hits
system.cpu.dcache.overall_hits::total        10725291                       # number of overall hits
system.cpu.dcache.demand_misses::.cpu.data            3                       # number of demand (read+write) misses
system.cpu.dcache.demand_misses::.switch_cpus.data      3242269                       # number of demand (read+write) misses
system.cpu.dcache.demand_misses::total        3242272                       # number of demand (read+write) misses
system.cpu.dcache.overall_misses::.cpu.data            3                       # number of overall misses
system.cpu.dcache.overall_misses::.switch_cpus.data      3242269                       # number of overall misses
system.cpu.dcache.overall_misses::total       3242272                       # number of overall misses
system.cpu.dcache.demand_miss_latency::.switch_cpus.data 222709897345                       # number of demand (read+write) miss cycles
system.cpu.dcache.demand_miss_latency::total 222709897345                       # number of demand (read+write) miss cycles
system.cpu.dcache.overall_miss_latency::.switch_cpus.data 222709897345                       # number of overall miss cycles
system.cpu.dcache.overall_miss_latency::total 222709897345                       # number of overall miss cycles
system.cpu.dcache.demand_accesses::.cpu.data            4                       # number of demand (read+write) accesses
system.cpu.dcache.demand_accesses::.switch_cpus.data     13967559                       # number of demand (read+write) accesses
system.cpu.dcache.demand_accesses::total     13967563                       # number of demand (read+write) accesses
system.cpu.dcache.overall_accesses::.cpu.data            4                       # number of overall (read+write) accesses
system.cpu.dcache.overall_accesses::.switch_cpus.data     13967559                       # number of overall (read+write) accesses
system.cpu.dcache.overall_accesses::total     13967563                       # number of overall (read+write) accesses
system.cpu.dcache.demand_miss_rate::.cpu.data     0.750000                       # miss rate for demand accesses
system.cpu.dcache.demand_miss_rate::.switch_cpus.data     0.232129                       # miss rate for demand accesses
system.cpu.dcache.demand_miss_rate::total     0.232129                       # miss rate for demand accesses
system.cpu.dcache.overall_miss_rate::.cpu.data     0.750000                       # miss rate for overall accesses
system.cpu.dcache.overall_miss_rate::.switch_cpus.data     0.232129                       # miss rate for overall accesses
system.cpu.dcache.overall_miss_rate::total     0.232129                       # miss rate for overall accesses
system.cpu.dcache.demand_avg_miss_latency::.switch_cpus.data 68689.518774                       # average overall miss latency
system.cpu.dcache.demand_avg_miss_latency::total 68689.455217                       # average overall miss latency
system.cpu.dcache.overall_avg_miss_latency::.switch_cpus.data 68689.518774                       # average overall miss latency
system.cpu.dcache.overall_avg_miss_latency::total 68689.455217                       # average overall miss latency
system.cpu.dcache.blocked_cycles::no_mshrs      5074790                       # number of cycles access was blocked
system.cpu.dcache.blocked_cycles::no_targets           75                       # number of cycles access was blocked
system.cpu.dcache.blocked::no_mshrs            129681                       # number of cycles access was blocked
system.cpu.dcache.blocked::no_targets               1                       # number of cycles access was blocked
system.cpu.dcache.avg_blocked_cycles::no_mshrs    39.132872                       # average number of cycles each access was blocked
system.cpu.dcache.avg_blocked_cycles::no_targets           75                       # average number of cycles each access was blocked
system.cpu.dcache.writebacks::.writebacks        97203                       # number of writebacks
system.cpu.dcache.writebacks::total             97203                       # number of writebacks
system.cpu.dcache.demand_mshr_hits::.switch_cpus.data      2409525                       # number of demand (read+write) MSHR hits
system.cpu.dcache.demand_mshr_hits::total      2409525                       # number of demand (read+write) MSHR hits
system.cpu.dcache.overall_mshr_hits::.switch_cpus.data      2409525                       # number of overall MSHR hits
system.cpu.dcache.overall_mshr_hits::total      2409525                       # number of overall MSHR hits
system.cpu.dcache.demand_mshr_misses::.switch_cpus.data       832744                       # number of demand (read+write) MSHR misses
system.cpu.dcache.demand_mshr_misses::total       832744                       # number of demand (read+write) MSHR misses
system.cpu.dcache.overall_mshr_misses::.switch_cpus.data       832744                       # number of overall MSHR misses
system.cpu.dcache.overall_mshr_misses::total       832744                       # number of overall MSHR misses
system.cpu.dcache.demand_mshr_miss_latency::.switch_cpus.data  62614575848                       # number of demand (read+write) MSHR miss cycles
system.cpu.dcache.demand_mshr_miss_latency::total  62614575848                       # number of demand (read+write) MSHR miss cycles
system.cpu.dcache.overall_mshr_miss_latency::.switch_cpus.data  62614575848                       # number of overall MSHR miss cycles
system.cpu.dcache.overall_mshr_miss_latency::total  62614575848                       # number of overall MSHR miss cycles
system.cpu.dcache.demand_mshr_miss_rate::.switch_cpus.data     0.059620                       # mshr miss rate for demand accesses
system.cpu.dcache.demand_mshr_miss_rate::total     0.059620                       # mshr miss rate for demand accesses
system.cpu.dcache.overall_mshr_miss_rate::.switch_cpus.data     0.059620                       # mshr miss rate for overall accesses
system.cpu.dcache.overall_mshr_miss_rate::total     0.059620                       # mshr miss rate for overall accesses
system.cpu.dcache.demand_avg_mshr_miss_latency::.switch_cpus.data 75190.665856                       # average overall mshr miss latency
system.cpu.dcache.demand_avg_mshr_miss_latency::total 75190.665856                       # average overall mshr miss latency
system.cpu.dcache.overall_avg_mshr_miss_latency::.switch_cpus.data 75190.665856                       # average overall mshr miss latency
system.cpu.dcache.overall_avg_mshr_miss_latency::total 75190.665856                       # average overall mshr miss latency
system.cpu.dcache.replacements                 831723                       # number of replacements
system.cpu.dcache.ReadReq_hits::.cpu.data            1                       # number of ReadReq hits
system.cpu.dcache.ReadReq_hits::.switch_cpus.data      9387393                       # number of ReadReq hits
system.cpu.dcache.ReadReq_hits::total         9387394                       # number of ReadReq hits
system.cpu.dcache.ReadReq_misses::.cpu.data            3                       # number of ReadReq misses
system.cpu.dcache.ReadReq_misses::.switch_cpus.data      3200893                       # number of ReadReq misses
system.cpu.dcache.ReadReq_misses::total       3200896                       # number of ReadReq misses
system.cpu.dcache.ReadReq_miss_latency::.switch_cpus.data 219467444000                       # number of ReadReq miss cycles
system.cpu.dcache.ReadReq_miss_latency::total 219467444000                       # number of ReadReq miss cycles
system.cpu.dcache.ReadReq_accesses::.cpu.data            4                       # number of ReadReq accesses(hits+misses)
system.cpu.dcache.ReadReq_accesses::.switch_cpus.data     12588286                       # number of ReadReq accesses(hits+misses)
system.cpu.dcache.ReadReq_accesses::total     12588290                       # number of ReadReq accesses(hits+misses)
system.cpu.dcache.ReadReq_miss_rate::.cpu.data     0.750000                       # miss rate for ReadReq accesses
system.cpu.dcache.ReadReq_miss_rate::.switch_cpus.data     0.254276                       # miss rate for ReadReq accesses
system.cpu.dcache.ReadReq_miss_rate::total     0.254276                       # miss rate for ReadReq accesses
system.cpu.dcache.ReadReq_avg_miss_latency::.switch_cpus.data 68564.442485                       # average ReadReq miss latency
system.cpu.dcache.ReadReq_avg_miss_latency::total 68564.378224                       # average ReadReq miss latency
system.cpu.dcache.ReadReq_mshr_hits::.switch_cpus.data      2409187                       # number of ReadReq MSHR hits
system.cpu.dcache.ReadReq_mshr_hits::total      2409187                       # number of ReadReq MSHR hits
system.cpu.dcache.ReadReq_mshr_misses::.switch_cpus.data       791706                       # number of ReadReq MSHR misses
system.cpu.dcache.ReadReq_mshr_misses::total       791706                       # number of ReadReq MSHR misses
system.cpu.dcache.ReadReq_mshr_miss_latency::.switch_cpus.data  59431438000                       # number of ReadReq MSHR miss cycles
system.cpu.dcache.ReadReq_mshr_miss_latency::total  59431438000                       # number of ReadReq MSHR miss cycles
system.cpu.dcache.ReadReq_mshr_miss_rate::.switch_cpus.data     0.062892                       # mshr miss rate for ReadReq accesses
system.cpu.dcache.ReadReq_mshr_miss_rate::total     0.062892                       # mshr miss rate for ReadReq accesses
system.cpu.dcache.ReadReq_avg_mshr_miss_latency::.switch_cpus.data 75067.560433                       # average ReadReq mshr miss latency
system.cpu.dcache.ReadReq_avg_mshr_miss_latency::total 75067.560433                       # average ReadReq mshr miss latency
system.cpu.dcache.WriteReq_hits::.switch_cpus.data      1337897                       # number of WriteReq hits
system.cpu.dcache.WriteReq_hits::total        1337897                       # number of WriteReq hits
system.cpu.dcache.WriteReq_misses::.switch_cpus.data        41376                       # number of WriteReq misses
system.cpu.dcache.WriteReq_misses::total        41376                       # number of WriteReq misses
system.cpu.dcache.WriteReq_miss_latency::.switch_cpus.data   3242453345                       # number of WriteReq miss cycles
system.cpu.dcache.WriteReq_miss_latency::total   3242453345                       # number of WriteReq miss cycles
system.cpu.dcache.WriteReq_accesses::.switch_cpus.data      1379273                       # number of WriteReq accesses(hits+misses)
system.cpu.dcache.WriteReq_accesses::total      1379273                       # number of WriteReq accesses(hits+misses)
system.cpu.dcache.WriteReq_miss_rate::.switch_cpus.data     0.029998                       # miss rate for WriteReq accesses
system.cpu.dcache.WriteReq_miss_rate::total     0.029998                       # miss rate for WriteReq accesses
system.cpu.dcache.WriteReq_avg_miss_latency::.switch_cpus.data 78365.558416                       # average WriteReq miss latency
system.cpu.dcache.WriteReq_avg_miss_latency::total 78365.558416                       # average WriteReq miss latency
system.cpu.dcache.WriteReq_mshr_hits::.switch_cpus.data          338                       # number of WriteReq MSHR hits
system.cpu.dcache.WriteReq_mshr_hits::total          338                       # number of WriteReq MSHR hits
system.cpu.dcache.WriteReq_mshr_misses::.switch_cpus.data        41038                       # number of WriteReq MSHR misses
system.cpu.dcache.WriteReq_mshr_misses::total        41038                       # number of WriteReq MSHR misses
system.cpu.dcache.WriteReq_mshr_miss_latency::.switch_cpus.data   3183137848                       # number of WriteReq MSHR miss cycles
system.cpu.dcache.WriteReq_mshr_miss_latency::total   3183137848                       # number of WriteReq MSHR miss cycles
system.cpu.dcache.WriteReq_mshr_miss_rate::.switch_cpus.data     0.029753                       # mshr miss rate for WriteReq accesses
system.cpu.dcache.WriteReq_mshr_miss_rate::total     0.029753                       # mshr miss rate for WriteReq accesses
system.cpu.dcache.WriteReq_avg_mshr_miss_latency::.switch_cpus.data 77565.618402                       # average WriteReq mshr miss latency
system.cpu.dcache.WriteReq_avg_mshr_miss_latency::total 77565.618402                       # average WriteReq mshr miss latency
system.cpu.dcache.tags.pwrStateResidencyTicks::UNDEFINED 359133317516500                       # Cumulative time (in ticks) in various power states
system.cpu.dcache.tags.tagsinuse             0.110578                       # Cycle average of tags in use
system.cpu.dcache.tags.total_refs            11558038                       # Total number of references to valid blocks.
system.cpu.dcache.tags.sampled_refs            832747                       # Sample count of references to valid blocks.
system.cpu.dcache.tags.avg_refs             13.879411                       # Average number of references to valid blocks.
system.cpu.dcache.tags.warmup_cycle      359094507845000                       # Cycle when the warmup percentage was hit.
system.cpu.dcache.tags.occ_blocks::.cpu.data     0.000002                       # Average occupied blocks per requestor
system.cpu.dcache.tags.occ_blocks::.switch_cpus.data     0.110577                       # Average occupied blocks per requestor
system.cpu.dcache.tags.occ_percent::.cpu.data     0.000000                       # Average percentage of cache occupancy
system.cpu.dcache.tags.occ_percent::.switch_cpus.data     0.000108                       # Average percentage of cache occupancy
system.cpu.dcache.tags.occ_percent::total     0.000108                       # Average percentage of cache occupancy
system.cpu.dcache.tags.occ_task_id_blocks::1024         1024                       # Occupied blocks per task id
system.cpu.dcache.tags.age_task_id_blocks_1024::0          238                       # Occupied blocks per task id
system.cpu.dcache.tags.age_task_id_blocks_1024::1          704                       # Occupied blocks per task id
system.cpu.dcache.tags.age_task_id_blocks_1024::2           82                       # Occupied blocks per task id
system.cpu.dcache.tags.occ_task_id_percent::1024            1                       # Percentage of cache occupancy per task id
system.cpu.dcache.tags.tag_accesses          28767873                       # Number of tag accesses
system.cpu.dcache.tags.data_accesses         28767873                       # Number of data accesses

---------- End Simulation Statistics   ----------
