
---------- Begin Simulation Statistics ----------
final_tick                               120508301581000                       # Number of ticks from beginning of simulation (restored from checkpoints and never reset)
host_inst_rate                                  66947                       # Simulator instruction rate (inst/s)
host_mem_usage                                 791544                       # Number of bytes of host memory used
host_op_rate                                   107535                       # Simulator op (including micro ops) rate (op/s)
host_seconds                                   149.37                       # Real time elapsed on the host
host_tick_rate                               19156822                       # Simulator tick rate (ticks/s)
sim_freq                                 1000000000000                       # Frequency of simulated ticks
sim_insts                                    10000012                       # Number of instructions simulated
sim_ops                                      16062752                       # Number of ops (including micro ops) simulated
sim_seconds                                  0.002862                       # Number of seconds simulated
sim_ticks                                  2861504750                       # Number of ticks simulated
system.cpu.committedInsts                          11                       # Number of instructions committed
system.cpu.committedOps                            16                       # Number of ops (including micro ops) committed
system.cpu.dtb.rdAccesses                           6                       # TLB accesses on read requests
system.cpu.dtb.rdMisses                             0                       # TLB misses on read requests
system.cpu.dtb.wrAccesses                           2                       # TLB accesses on write requests
system.cpu.dtb.wrMisses                             0                       # TLB misses on write requests
system.cpu.idle_fraction                            0                       # Percentage of idle cycles
system.cpu.itb.rdAccesses                           0                       # TLB accesses on read requests
system.cpu.itb.rdMisses                             0                       # TLB misses on read requests
system.cpu.itb.wrAccesses                          15                       # TLB accesses on write requests
system.cpu.itb.wrMisses                             0                       # TLB misses on write requests
system.cpu.not_idle_fraction                        1                       # Percentage of non-idle cycles
system.cpu.numCycles                               20                       # number of cpu cycles simulated
system.cpu.numWorkItemsCompleted                    0                       # number of work items this cpu completed
system.cpu.numWorkItemsStarted                      0                       # number of work items this cpu started
system.cpu.num_busy_cycles                         20                       # Number of busy cycles
system.cpu.num_cc_register_reads                   10                       # number of times the CC registers were read
system.cpu.num_cc_register_writes                  10                       # number of times the CC registers were written
system.cpu.num_conditional_control_insts            0                       # number of instructions that are conditional controls
system.cpu.num_fp_alu_accesses                      0                       # Number of float alu accesses
system.cpu.num_fp_insts                             0                       # number of float instructions
system.cpu.num_fp_register_reads                    0                       # number of times the floating registers were read
system.cpu.num_fp_register_writes                   0                       # number of times the floating registers were written
system.cpu.num_func_calls                           0                       # number of times a function call or return occured
system.cpu.num_idle_cycles                          0                       # Number of idle cycles
system.cpu.num_int_alu_accesses                    16                       # Number of integer alu accesses
system.cpu.num_int_insts                           16                       # number of integer instructions
system.cpu.num_int_register_reads                  42                       # number of times the integer registers were read
system.cpu.num_int_register_writes                 14                       # number of times the integer registers were written
system.cpu.num_load_insts                           6                       # Number of load instructions
system.cpu.num_mem_refs                             8                       # number of memory refs
system.cpu.num_store_insts                          2                       # Number of store instructions
system.cpu.num_vec_alu_accesses                     0                       # Number of vector alu accesses
system.cpu.num_vec_insts                            0                       # number of vector instructions
system.cpu.num_vec_register_reads                   0                       # number of times the vector registers were read
system.cpu.num_vec_register_writes                  0                       # number of times the vector registers were written
system.cpu.op_class::No_OpClass                     0      0.00%      0.00% # Class of executed instruction
system.cpu.op_class::IntAlu                         8     50.00%     50.00% # Class of executed instruction
system.cpu.op_class::IntMult                        0      0.00%     50.00% # Class of executed instruction
system.cpu.op_class::IntDiv                         0      0.00%     50.00% # Class of executed instruction
system.cpu.op_class::FloatAdd                       0      0.00%     50.00% # Class of executed instruction
system.cpu.op_class::FloatCmp                       0      0.00%     50.00% # Class of executed instruction
system.cpu.op_class::FloatCvt                       0      0.00%     50.00% # Class of executed instruction
system.cpu.op_class::FloatMult                      0      0.00%     50.00% # Class of executed instruction
system.cpu.op_class::FloatMultAcc                   0      0.00%     50.00% # Class of executed instruction
system.cpu.op_class::FloatDiv                       0      0.00%     50.00% # Class of executed instruction
system.cpu.op_class::FloatMisc                      0      0.00%     50.00% # Class of executed instruction
system.cpu.op_class::FloatSqrt                      0      0.00%     50.00% # Class of executed instruction
system.cpu.op_class::SimdAdd                        0      0.00%     50.00% # Class of executed instruction
system.cpu.op_class::SimdAddAcc                     0      0.00%     50.00% # Class of executed instruction
system.cpu.op_class::SimdAlu                        0      0.00%     50.00% # Class of executed instruction
system.cpu.op_class::SimdCmp                        0      0.00%     50.00% # Class of executed instruction
system.cpu.op_class::SimdCvt                        0      0.00%     50.00% # Class of executed instruction
system.cpu.op_class::SimdMisc                       0      0.00%     50.00% # Class of executed instruction
system.cpu.op_class::SimdMult                       0      0.00%     50.00% # Class of executed instruction
system.cpu.op_class::SimdMultAcc                    0      0.00%     50.00% # Class of executed instruction
system.cpu.op_class::SimdShift                      0      0.00%     50.00% # Class of executed instruction
system.cpu.op_class::SimdShiftAcc                   0      0.00%     50.00% # Class of executed instruction
system.cpu.op_class::SimdDiv                        0      0.00%     50.00% # Class of executed instruction
system.cpu.op_class::SimdSqrt                       0      0.00%     50.00% # Class of executed instruction
system.cpu.op_class::SimdFloatAdd                   0      0.00%     50.00% # Class of executed instruction
system.cpu.op_class::SimdFloatAlu                   0      0.00%     50.00% # Class of executed instruction
system.cpu.op_class::SimdFloatCmp                   0      0.00%     50.00% # Class of executed instruction
system.cpu.op_class::SimdFloatCvt                   0      0.00%     50.00% # Class of executed instruction
system.cpu.op_class::SimdFloatDiv                   0      0.00%     50.00% # Class of executed instruction
system.cpu.op_class::SimdFloatMisc                  0      0.00%     50.00% # Class of executed instruction
system.cpu.op_class::SimdFloatMult                  0      0.00%     50.00% # Class of executed instruction
system.cpu.op_class::SimdFloatMultAcc               0      0.00%     50.00% # Class of executed instruction
system.cpu.op_class::SimdFloatSqrt                  0      0.00%     50.00% # Class of executed instruction
system.cpu.op_class::SimdReduceAdd                  0      0.00%     50.00% # Class of executed instruction
system.cpu.op_class::SimdReduceAlu                  0      0.00%     50.00% # Class of executed instruction
system.cpu.op_class::SimdReduceCmp                  0      0.00%     50.00% # Class of executed instruction
system.cpu.op_class::SimdFloatReduceAdd             0      0.00%     50.00% # Class of executed instruction
system.cpu.op_class::SimdFloatReduceCmp             0      0.00%     50.00% # Class of executed instruction
system.cpu.op_class::SimdAes                        0      0.00%     50.00% # Class of executed instruction
system.cpu.op_class::SimdAesMix                     0      0.00%     50.00% # Class of executed instruction
system.cpu.op_class::SimdSha1Hash                   0      0.00%     50.00% # Class of executed instruction
system.cpu.op_class::SimdSha1Hash2                  0      0.00%     50.00% # Class of executed instruction
system.cpu.op_class::SimdSha256Hash                 0      0.00%     50.00% # Class of executed instruction
system.cpu.op_class::SimdSha256Hash2                0      0.00%     50.00% # Class of executed instruction
system.cpu.op_class::SimdShaSigma2                  0      0.00%     50.00% # Class of executed instruction
system.cpu.op_class::SimdShaSigma3                  0      0.00%     50.00% # Class of executed instruction
system.cpu.op_class::SimdPredAlu                    0      0.00%     50.00% # Class of executed instruction
system.cpu.op_class::MemRead                        6     37.50%     87.50% # Class of executed instruction
system.cpu.op_class::MemWrite                       2     12.50%    100.00% # Class of executed instruction
system.cpu.op_class::FloatMemRead                   0      0.00%    100.00% # Class of executed instruction
system.cpu.op_class::FloatMemWrite                  0      0.00%    100.00% # Class of executed instruction
system.cpu.op_class::IprAccess                      0      0.00%    100.00% # Class of executed instruction
system.cpu.op_class::InstPrefetch                   0      0.00%    100.00% # Class of executed instruction
system.cpu.op_class::total                         16                       # Class of executed instruction
system.cpu.workload.numSyscalls                     0                       # Number of system calls
system.membus.snoop_filter.hit_multi_requests            0                       # Number of requests hitting in the snoop filter with multiple (>1) holders of the requested data.
system.membus.snoop_filter.hit_multi_snoops            0                       # Number of snoops hitting in the snoop filter with multiple (>1) holders of the requested data.
system.membus.snoop_filter.hit_single_requests         4996                       # Number of requests hitting in the snoop filter with a single holder of the requested data.
system.membus.snoop_filter.hit_single_snoops            0                       # Number of snoops hitting in the snoop filter with a single holder of the requested data.
system.membus.snoop_filter.tot_requests         12020                       # Total number of requests made to the snoop filter.
system.membus.snoop_filter.tot_snoops               0                       # Total number of snoops made to the snoop filter.
system.switch_cpus.branchPred.BTBCorrect            0                       # Number of correct BTB predictions (this stat may not work properly.
system.switch_cpus.branchPred.BTBHitPct      0.000000                       # BTB Hit Percentage
system.switch_cpus.branchPred.BTBHits               0                       # Number of BTB hits
system.switch_cpus.branchPred.BTBLookups       615128                       # Number of BTB lookups
system.switch_cpus.branchPred.RASInCorrect            1                       # Number of incorrect RAS predictions.
system.switch_cpus.branchPred.condIncorrect        20039                       # Number of conditional branches incorrect
system.switch_cpus.branchPred.condPredicted       870248                       # Number of conditional branches predicted
system.switch_cpus.branchPred.indirectHits       504097                       # Number of indirect target hits.
system.switch_cpus.branchPred.indirectLookups       615128                       # Number of indirect predictor lookups.
system.switch_cpus.branchPred.indirectMisses       111031                       # Number of indirect misses.
system.switch_cpus.branchPred.lookups          953541                       # Number of BP lookups
system.switch_cpus.branchPred.usedRAS           40900                       # Number of times the RAS was used to get a target.
system.switch_cpus.branchPredindirectMispredicted         2367                       # Number of mispredicted indirect branches.
system.switch_cpus.cc_regfile_reads          14098804                       # number of cc regfile reads
system.switch_cpus.cc_regfile_writes          7123306                       # number of cc regfile writes
system.switch_cpus.commit.amos                      0                       # Number of atomic instructions committed
system.switch_cpus.commit.branchMispredicts        20062                       # The number of times a branch was mispredicted
system.switch_cpus.commit.branches             724275                       # Number of branches committed
system.switch_cpus.commit.bw_lim_events       1261931                       # number cycles where commit BW limit reached
system.switch_cpus.commit.commitSquashedInsts      1240171                       # The number of squashed insts skipped by commit
system.switch_cpus.commit.committedInsts     10000001                       # Number of instructions committed
system.switch_cpus.commit.committedOps       16062736                       # Number of ops (including micro ops) committed
system.switch_cpus.commit.committed_per_cycle::samples      5547211                       # Number of insts commited each cycle
system.switch_cpus.commit.committed_per_cycle::mean     2.895642                       # Number of insts commited each cycle
system.switch_cpus.commit.committed_per_cycle::stdev     3.111988                       # Number of insts commited each cycle
system.switch_cpus.commit.committed_per_cycle::underflows            0      0.00%      0.00% # Number of insts commited each cycle
system.switch_cpus.commit.committed_per_cycle::0      1277186     23.02%     23.02% # Number of insts commited each cycle
system.switch_cpus.commit.committed_per_cycle::1      1867507     33.67%     56.69% # Number of insts commited each cycle
system.switch_cpus.commit.committed_per_cycle::2       425294      7.67%     64.36% # Number of insts commited each cycle
system.switch_cpus.commit.committed_per_cycle::3       203353      3.67%     68.02% # Number of insts commited each cycle
system.switch_cpus.commit.committed_per_cycle::4       153773      2.77%     70.79% # Number of insts commited each cycle
system.switch_cpus.commit.committed_per_cycle::5       170688      3.08%     73.87% # Number of insts commited each cycle
system.switch_cpus.commit.committed_per_cycle::6       141751      2.56%     76.43% # Number of insts commited each cycle
system.switch_cpus.commit.committed_per_cycle::7        45728      0.82%     77.25% # Number of insts commited each cycle
system.switch_cpus.commit.committed_per_cycle::8      1261931     22.75%    100.00% # Number of insts commited each cycle
system.switch_cpus.commit.committed_per_cycle::overflows            0      0.00%    100.00% # Number of insts commited each cycle
system.switch_cpus.commit.committed_per_cycle::min_value            0                       # Number of insts commited each cycle
system.switch_cpus.commit.committed_per_cycle::max_value            8                       # Number of insts commited each cycle
system.switch_cpus.commit.committed_per_cycle::total      5547211                       # Number of insts commited each cycle
system.switch_cpus.commit.fp_insts            1436910                       # Number of committed floating point instructions.
system.switch_cpus.commit.function_calls        32801                       # Number of function calls committed.
system.switch_cpus.commit.int_insts          14834461                       # Number of committed integer instructions.
system.switch_cpus.commit.loads               3595534                       # Number of loads committed
system.switch_cpus.commit.membars                   0                       # Number of memory barriers committed
system.switch_cpus.commit.op_class_0::No_OpClass        95086      0.59%      0.59% # Class of committed instruction
system.switch_cpus.commit.op_class_0::IntAlu      9860253     61.39%     61.98% # Class of committed instruction
system.switch_cpus.commit.op_class_0::IntMult        86584      0.54%     62.52% # Class of committed instruction
system.switch_cpus.commit.op_class_0::IntDiv            0      0.00%     62.52% # Class of committed instruction
system.switch_cpus.commit.op_class_0::FloatAdd        32605      0.20%     62.72% # Class of committed instruction
system.switch_cpus.commit.op_class_0::FloatCmp            0      0.00%     62.72% # Class of committed instruction
system.switch_cpus.commit.op_class_0::FloatCvt            0      0.00%     62.72% # Class of committed instruction
system.switch_cpus.commit.op_class_0::FloatMult            0      0.00%     62.72% # Class of committed instruction
system.switch_cpus.commit.op_class_0::FloatMultAcc            0      0.00%     62.72% # Class of committed instruction
system.switch_cpus.commit.op_class_0::FloatDiv            0      0.00%     62.72% # Class of committed instruction
system.switch_cpus.commit.op_class_0::FloatMisc            0      0.00%     62.72% # Class of committed instruction
system.switch_cpus.commit.op_class_0::FloatSqrt            0      0.00%     62.72% # Class of committed instruction
system.switch_cpus.commit.op_class_0::SimdAdd        20986      0.13%     62.85% # Class of committed instruction
system.switch_cpus.commit.op_class_0::SimdAddAcc            0      0.00%     62.85% # Class of committed instruction
system.switch_cpus.commit.op_class_0::SimdAlu       329262      2.05%     64.90% # Class of committed instruction
system.switch_cpus.commit.op_class_0::SimdCmp            0      0.00%     64.90% # Class of committed instruction
system.switch_cpus.commit.op_class_0::SimdCvt       127366      0.79%     65.69% # Class of committed instruction
system.switch_cpus.commit.op_class_0::SimdMisc       161050      1.00%     66.70% # Class of committed instruction
system.switch_cpus.commit.op_class_0::SimdMult            0      0.00%     66.70% # Class of committed instruction
system.switch_cpus.commit.op_class_0::SimdMultAcc            0      0.00%     66.70% # Class of committed instruction
system.switch_cpus.commit.op_class_0::SimdShift        62958      0.39%     67.09% # Class of committed instruction
system.switch_cpus.commit.op_class_0::SimdShiftAcc            0      0.00%     67.09% # Class of committed instruction
system.switch_cpus.commit.op_class_0::SimdDiv            0      0.00%     67.09% # Class of committed instruction
system.switch_cpus.commit.op_class_0::SimdSqrt            0      0.00%     67.09% # Class of committed instruction
system.switch_cpus.commit.op_class_0::SimdFloatAdd       110449      0.69%     67.78% # Class of committed instruction
system.switch_cpus.commit.op_class_0::SimdFloatAlu            0      0.00%     67.78% # Class of committed instruction
system.switch_cpus.commit.op_class_0::SimdFloatCmp           31      0.00%     67.78% # Class of committed instruction
system.switch_cpus.commit.op_class_0::SimdFloatCvt       154150      0.96%     68.74% # Class of committed instruction
system.switch_cpus.commit.op_class_0::SimdFloatDiv        21677      0.13%     68.87% # Class of committed instruction
system.switch_cpus.commit.op_class_0::SimdFloatMisc            0      0.00%     68.87% # Class of committed instruction
system.switch_cpus.commit.op_class_0::SimdFloatMult        11191      0.07%     68.94% # Class of committed instruction
system.switch_cpus.commit.op_class_0::SimdFloatMultAcc            0      0.00%     68.94% # Class of committed instruction
system.switch_cpus.commit.op_class_0::SimdFloatSqrt            0      0.00%     68.94% # Class of committed instruction
system.switch_cpus.commit.op_class_0::SimdReduceAdd            0      0.00%     68.94% # Class of committed instruction
system.switch_cpus.commit.op_class_0::SimdReduceAlu            0      0.00%     68.94% # Class of committed instruction
system.switch_cpus.commit.op_class_0::SimdReduceCmp            0      0.00%     68.94% # Class of committed instruction
system.switch_cpus.commit.op_class_0::SimdFloatReduceAdd            0      0.00%     68.94% # Class of committed instruction
system.switch_cpus.commit.op_class_0::SimdFloatReduceCmp            0      0.00%     68.94% # Class of committed instruction
system.switch_cpus.commit.op_class_0::SimdAes            0      0.00%     68.94% # Class of committed instruction
system.switch_cpus.commit.op_class_0::SimdAesMix            0      0.00%     68.94% # Class of committed instruction
system.switch_cpus.commit.op_class_0::SimdSha1Hash            0      0.00%     68.94% # Class of committed instruction
system.switch_cpus.commit.op_class_0::SimdSha1Hash2            0      0.00%     68.94% # Class of committed instruction
system.switch_cpus.commit.op_class_0::SimdSha256Hash            0      0.00%     68.94% # Class of committed instruction
system.switch_cpus.commit.op_class_0::SimdSha256Hash2            0      0.00%     68.94% # Class of committed instruction
system.switch_cpus.commit.op_class_0::SimdShaSigma2            0      0.00%     68.94% # Class of committed instruction
system.switch_cpus.commit.op_class_0::SimdShaSigma3            0      0.00%     68.94% # Class of committed instruction
system.switch_cpus.commit.op_class_0::SimdPredAlu            0      0.00%     68.94% # Class of committed instruction
system.switch_cpus.commit.op_class_0::MemRead      3367523     20.96%     89.90% # Class of committed instruction
system.switch_cpus.commit.op_class_0::MemWrite      1393220      8.67%     98.58% # Class of committed instruction
system.switch_cpus.commit.op_class_0::FloatMemRead       228011      1.42%    100.00% # Class of committed instruction
system.switch_cpus.commit.op_class_0::FloatMemWrite          334      0.00%    100.00% # Class of committed instruction
system.switch_cpus.commit.op_class_0::IprAccess            0      0.00%    100.00% # Class of committed instruction
system.switch_cpus.commit.op_class_0::InstPrefetch            0      0.00%    100.00% # Class of committed instruction
system.switch_cpus.commit.op_class_0::total     16062736                       # Class of committed instruction
system.switch_cpus.commit.refs                4989088                       # Number of memory references committed
system.switch_cpus.commit.swp_count                 0                       # Number of s/w prefetches committed
system.switch_cpus.commit.vec_insts                 0                       # Number of committed Vector instructions.
system.switch_cpus.committedInsts            10000001                       # Number of Instructions Simulated
system.switch_cpus.committedOps              16062736                       # Number of Ops (including micro ops) Simulated
system.switch_cpus.cpi                       0.572299                       # CPI: Cycles Per Instruction
system.switch_cpus.cpi_total                 0.572299                       # CPI: Total CPI of All Threads
system.switch_cpus.decode.BlockedCycles       2810414                       # Number of cycles decode is blocked
system.switch_cpus.decode.DecodedInsts       17648451                       # Number of instructions handled by decode
system.switch_cpus.decode.IdleCycles           554327                       # Number of cycles decode is idle
system.switch_cpus.decode.RunCycles           1569743                       # Number of cycles decode is running
system.switch_cpus.decode.SquashCycles          20288                       # Number of cycles decode is squashing
system.switch_cpus.decode.UnblockCycles        758388                       # Number of cycles decode is unblocking
system.switch_cpus.dtb.rdAccesses             3682149                       # TLB accesses on read requests
system.switch_cpus.dtb.rdMisses                    59                       # TLB misses on read requests
system.switch_cpus.dtb.wrAccesses             1406475                       # TLB accesses on write requests
system.switch_cpus.dtb.wrMisses                    80                       # TLB misses on write requests
system.switch_cpus.fetch.Branches              953541                       # Number of branches that fetch encountered
system.switch_cpus.fetch.CacheLines            853245                       # Number of cache lines fetched
system.switch_cpus.fetch.Cycles               4825723                       # Number of cycles fetch has run and was not squashing or blocked
system.switch_cpus.fetch.IcacheSquashes          3775                       # Number of outstanding Icache misses that were squashed
system.switch_cpus.fetch.Insts               10952995                       # Number of instructions fetch has processed
system.switch_cpus.fetch.MiscStallCycles           23                       # Number of cycles fetch has spent waiting on interrupts, or bad addresses, or out of MSHRs
system.switch_cpus.fetch.PendingTrapStallCycles          144                       # Number of stall cycles due to pending traps
system.switch_cpus.fetch.SquashCycles           40576                       # Number of cycles fetch has spent squashing
system.switch_cpus.fetch.branchRate          0.166616                       # Number of branch fetches per cycle
system.switch_cpus.fetch.icacheStallCycles       866987                       # Number of cycles fetch is stalled on an Icache miss
system.switch_cpus.fetch.predictedBranches       544997                       # Number of branches that fetch has predicted taken
system.switch_cpus.fetch.rate                1.913859                       # Number of inst fetches per cycle
system.switch_cpus.fetch.rateDist::samples      5713165                       # Number of instructions fetched each cycle (Total)
system.switch_cpus.fetch.rateDist::mean      3.130642                       # Number of instructions fetched each cycle (Total)
system.switch_cpus.fetch.rateDist::stdev     3.530702                       # Number of instructions fetched each cycle (Total)
system.switch_cpus.fetch.rateDist::underflows            0      0.00%      0.00% # Number of instructions fetched each cycle (Total)
system.switch_cpus.fetch.rateDist::0          2899700     50.75%     50.75% # Number of instructions fetched each cycle (Total)
system.switch_cpus.fetch.rateDist::1           137295      2.40%     53.16% # Number of instructions fetched each cycle (Total)
system.switch_cpus.fetch.rateDist::2           104741      1.83%     54.99% # Number of instructions fetched each cycle (Total)
system.switch_cpus.fetch.rateDist::3           149839      2.62%     57.61% # Number of instructions fetched each cycle (Total)
system.switch_cpus.fetch.rateDist::4           180576      3.16%     60.77% # Number of instructions fetched each cycle (Total)
system.switch_cpus.fetch.rateDist::5           345674      6.05%     66.83% # Number of instructions fetched each cycle (Total)
system.switch_cpus.fetch.rateDist::6           166673      2.92%     69.74% # Number of instructions fetched each cycle (Total)
system.switch_cpus.fetch.rateDist::7           190469      3.33%     73.08% # Number of instructions fetched each cycle (Total)
system.switch_cpus.fetch.rateDist::8          1538198     26.92%    100.00% # Number of instructions fetched each cycle (Total)
system.switch_cpus.fetch.rateDist::overflows            0      0.00%    100.00% # Number of instructions fetched each cycle (Total)
system.switch_cpus.fetch.rateDist::min_value            0                       # Number of instructions fetched each cycle (Total)
system.switch_cpus.fetch.rateDist::max_value            8                       # Number of instructions fetched each cycle (Total)
system.switch_cpus.fetch.rateDist::total      5713165                       # Number of instructions fetched each cycle (Total)
system.switch_cpus.fp_regfile_reads           2767219                       # number of floating regfile reads
system.switch_cpus.fp_regfile_writes          1377839                       # number of floating regfile writes
system.switch_cpus.idleCycles                    9824                       # Total number of cycles that the CPU has spent unscheduled due to idling
system.switch_cpus.iew.branchMispredicts        33836                       # Number of branch mispredicts detected at execute
system.switch_cpus.iew.exec_branches           789212                       # Number of branches executed
system.switch_cpus.iew.exec_nop                     0                       # number of nop insts executed
system.switch_cpus.iew.exec_rate             2.934975                       # Inst execution rate
system.switch_cpus.iew.exec_refs              5083042                       # number of memory reference insts executed
system.switch_cpus.iew.exec_stores            1406475                       # Number of stores executed
system.switch_cpus.iew.exec_swp                     0                       # number of swp insts executed
system.switch_cpus.iew.iewBlockCycles          153166                       # Number of cycles IEW is blocking
system.switch_cpus.iew.iewDispLoadInsts       3708666                       # Number of dispatched load instructions
system.switch_cpus.iew.iewDispNonSpecInsts            2                       # Number of dispatched non-speculative instructions
system.switch_cpus.iew.iewDispSquashedInsts          511                       # Number of squashed instructions skipped by dispatch
system.switch_cpus.iew.iewDispStoreInsts      1422961                       # Number of dispatched store instructions
system.switch_cpus.iew.iewDispatchedInsts     17302935                       # Number of instructions dispatched to IQ
system.switch_cpus.iew.iewExecLoadInsts       3676567                       # Number of load instructions executed
system.switch_cpus.iew.iewExecSquashedInsts        33130                       # Number of squashed instructions skipped in execute
system.switch_cpus.iew.iewExecutedInsts      16796830                       # Number of executed instructions
system.switch_cpus.iew.iewIQFullEvents            242                       # Number of times the IQ has become full, causing a stall
system.switch_cpus.iew.iewIdleCycles                0                       # Number of cycles IEW is idle
system.switch_cpus.iew.iewLSQFullEvents         85276                       # Number of times the LSQ has become full, causing a stall
system.switch_cpus.iew.iewSquashCycles          20288                       # Number of cycles IEW is squashing
system.switch_cpus.iew.iewUnblockCycles         85606                       # Number of cycles IEW is unblocking
system.switch_cpus.iew.lsq.thread0.blockedLoads            0                       # Number of blocked loads due to partial load-store forwarding
system.switch_cpus.iew.lsq.thread0.cacheBlocked          209                       # Number of times an access to memory failed due to the cache being blocked
system.switch_cpus.iew.lsq.thread0.forwLoads       384202                       # Number of loads that had data forwarded from stores
system.switch_cpus.iew.lsq.thread0.ignoredResponses           49                       # Number of memory responses ignored because the instruction is squashed
system.switch_cpus.iew.lsq.thread0.invAddrLoads            0                       # Number of loads ignored due to an invalid address
system.switch_cpus.iew.lsq.thread0.invAddrSwpfs            0                       # Number of software prefetches ignored due to an invalid address
system.switch_cpus.iew.lsq.thread0.memOrderViolation          262                       # Number of memory ordering violations
system.switch_cpus.iew.lsq.thread0.rescheduledLoads            0                       # Number of loads that were rescheduled
system.switch_cpus.iew.lsq.thread0.squashedLoads       113116                       # Number of loads squashed
system.switch_cpus.iew.lsq.thread0.squashedStores        29401                       # Number of stores squashed
system.switch_cpus.iew.memOrderViolationEvents          262                       # Number of memory order violations
system.switch_cpus.iew.predictedNotTakenIncorrect        28560                       # Number of branches that were predicted not taken incorrectly
system.switch_cpus.iew.predictedTakenIncorrect         5276                       # Number of branches that were predicted taken incorrectly
system.switch_cpus.iew.wb_consumers          26989860                       # num instructions consuming a value
system.switch_cpus.iew.wb_count              16779844                       # cumulative count of insts written-back
system.switch_cpus.iew.wb_fanout             0.498359                       # average fanout of values written-back
system.switch_cpus.iew.wb_producers          13450631                       # num instructions producing a value
system.switch_cpus.iew.wb_rate               2.932007                       # insts written-back per cycle
system.switch_cpus.iew.wb_sent               16786730                       # cumulative count of insts sent to commit
system.switch_cpus.int_regfile_reads         29017714                       # number of integer regfile reads
system.switch_cpus.int_regfile_writes        13102917                       # number of integer regfile writes
system.switch_cpus.ipc                       1.747339                       # IPC: Instructions Per Cycle
system.switch_cpus.ipc_total                 1.747339                       # IPC: Total IPC of All Threads
system.switch_cpus.iq.FU_type_0::No_OpClass       100082      0.59%      0.59% # Type of FU issued
system.switch_cpus.iq.FU_type_0::IntAlu      10434404     62.00%     62.59% # Type of FU issued
system.switch_cpus.iq.FU_type_0::IntMult        88169      0.52%     63.12% # Type of FU issued
system.switch_cpus.iq.FU_type_0::IntDiv             0      0.00%     63.12% # Type of FU issued
system.switch_cpus.iq.FU_type_0::FloatAdd        35196      0.21%     63.33% # Type of FU issued
system.switch_cpus.iq.FU_type_0::FloatCmp            0      0.00%     63.33% # Type of FU issued
system.switch_cpus.iq.FU_type_0::FloatCvt            0      0.00%     63.33% # Type of FU issued
system.switch_cpus.iq.FU_type_0::FloatMult            0      0.00%     63.33% # Type of FU issued
system.switch_cpus.iq.FU_type_0::FloatMultAcc            0      0.00%     63.33% # Type of FU issued
system.switch_cpus.iq.FU_type_0::FloatDiv            0      0.00%     63.33% # Type of FU issued
system.switch_cpus.iq.FU_type_0::FloatMisc            0      0.00%     63.33% # Type of FU issued
system.switch_cpus.iq.FU_type_0::FloatSqrt            0      0.00%     63.33% # Type of FU issued
system.switch_cpus.iq.FU_type_0::SimdAdd        20986      0.12%     63.45% # Type of FU issued
system.switch_cpus.iq.FU_type_0::SimdAddAcc            0      0.00%     63.45% # Type of FU issued
system.switch_cpus.iq.FU_type_0::SimdAlu       342971      2.04%     65.49% # Type of FU issued
system.switch_cpus.iq.FU_type_0::SimdCmp            0      0.00%     65.49% # Type of FU issued
system.switch_cpus.iq.FU_type_0::SimdCvt       129673      0.77%     66.26% # Type of FU issued
system.switch_cpus.iq.FU_type_0::SimdMisc       162977      0.97%     67.23% # Type of FU issued
system.switch_cpus.iq.FU_type_0::SimdMult            0      0.00%     67.23% # Type of FU issued
system.switch_cpus.iq.FU_type_0::SimdMultAcc            0      0.00%     67.23% # Type of FU issued
system.switch_cpus.iq.FU_type_0::SimdShift        63017      0.37%     67.60% # Type of FU issued
system.switch_cpus.iq.FU_type_0::SimdShiftAcc            0      0.00%     67.60% # Type of FU issued
system.switch_cpus.iq.FU_type_0::SimdDiv            0      0.00%     67.60% # Type of FU issued
system.switch_cpus.iq.FU_type_0::SimdSqrt            0      0.00%     67.60% # Type of FU issued
system.switch_cpus.iq.FU_type_0::SimdFloatAdd       142237      0.85%     68.45% # Type of FU issued
system.switch_cpus.iq.FU_type_0::SimdFloatAlu            0      0.00%     68.45% # Type of FU issued
system.switch_cpus.iq.FU_type_0::SimdFloatCmp           62      0.00%     68.45% # Type of FU issued
system.switch_cpus.iq.FU_type_0::SimdFloatCvt       180295      1.07%     69.52% # Type of FU issued
system.switch_cpus.iq.FU_type_0::SimdFloatDiv        23633      0.14%     69.66% # Type of FU issued
system.switch_cpus.iq.FU_type_0::SimdFloatMisc            0      0.00%     69.66% # Type of FU issued
system.switch_cpus.iq.FU_type_0::SimdFloatMult        13189      0.08%     69.74% # Type of FU issued
system.switch_cpus.iq.FU_type_0::SimdFloatMultAcc            0      0.00%     69.74% # Type of FU issued
system.switch_cpus.iq.FU_type_0::SimdFloatSqrt            0      0.00%     69.74% # Type of FU issued
system.switch_cpus.iq.FU_type_0::SimdReduceAdd            0      0.00%     69.74% # Type of FU issued
system.switch_cpus.iq.FU_type_0::SimdReduceAlu            0      0.00%     69.74% # Type of FU issued
system.switch_cpus.iq.FU_type_0::SimdReduceCmp            0      0.00%     69.74% # Type of FU issued
system.switch_cpus.iq.FU_type_0::SimdFloatReduceAdd            0      0.00%     69.74% # Type of FU issued
system.switch_cpus.iq.FU_type_0::SimdFloatReduceCmp            0      0.00%     69.74% # Type of FU issued
system.switch_cpus.iq.FU_type_0::SimdAes            0      0.00%     69.74% # Type of FU issued
system.switch_cpus.iq.FU_type_0::SimdAesMix            0      0.00%     69.74% # Type of FU issued
system.switch_cpus.iq.FU_type_0::SimdSha1Hash            0      0.00%     69.74% # Type of FU issued
system.switch_cpus.iq.FU_type_0::SimdSha1Hash2            0      0.00%     69.74% # Type of FU issued
system.switch_cpus.iq.FU_type_0::SimdSha256Hash            0      0.00%     69.74% # Type of FU issued
system.switch_cpus.iq.FU_type_0::SimdSha256Hash2            0      0.00%     69.74% # Type of FU issued
system.switch_cpus.iq.FU_type_0::SimdShaSigma2            0      0.00%     69.74% # Type of FU issued
system.switch_cpus.iq.FU_type_0::SimdShaSigma3            0      0.00%     69.74% # Type of FU issued
system.switch_cpus.iq.FU_type_0::SimdPredAlu            0      0.00%     69.74% # Type of FU issued
system.switch_cpus.iq.FU_type_0::MemRead      3401149     20.21%     89.95% # Type of FU issued
system.switch_cpus.iq.FU_type_0::MemWrite      1407969      8.37%     98.31% # Type of FU issued
system.switch_cpus.iq.FU_type_0::FloatMemRead       283503      1.68%    100.00% # Type of FU issued
system.switch_cpus.iq.FU_type_0::FloatMemWrite          451      0.00%    100.00% # Type of FU issued
system.switch_cpus.iq.FU_type_0::IprAccess            0      0.00%    100.00% # Type of FU issued
system.switch_cpus.iq.FU_type_0::InstPrefetch            0      0.00%    100.00% # Type of FU issued
system.switch_cpus.iq.FU_type_0::total       16829963                       # Type of FU issued
system.switch_cpus.iq.fp_alu_accesses         1601060                       # Number of floating point alu accesses
system.switch_cpus.iq.fp_inst_queue_reads      3178267                       # Number of floating instruction queue reads
system.switch_cpus.iq.fp_inst_queue_wakeup_accesses      1559766                       # Number of floating instruction queue wakeup accesses
system.switch_cpus.iq.fp_inst_queue_writes      1910624                       # Number of floating instruction queue writes
system.switch_cpus.iq.fu_busy_cnt              207117                       # FU busy when requested
system.switch_cpus.iq.fu_busy_rate           0.012306                       # FU busy rate (busy events/executed inst)
system.switch_cpus.iq.fu_full::No_OpClass            0      0.00%      0.00% # attempts to use FU when none available
system.switch_cpus.iq.fu_full::IntAlu          124563     60.14%     60.14% # attempts to use FU when none available
system.switch_cpus.iq.fu_full::IntMult              0      0.00%     60.14% # attempts to use FU when none available
system.switch_cpus.iq.fu_full::IntDiv               0      0.00%     60.14% # attempts to use FU when none available
system.switch_cpus.iq.fu_full::FloatAdd             0      0.00%     60.14% # attempts to use FU when none available
system.switch_cpus.iq.fu_full::FloatCmp             0      0.00%     60.14% # attempts to use FU when none available
system.switch_cpus.iq.fu_full::FloatCvt             0      0.00%     60.14% # attempts to use FU when none available
system.switch_cpus.iq.fu_full::FloatMult            0      0.00%     60.14% # attempts to use FU when none available
system.switch_cpus.iq.fu_full::FloatMultAcc            0      0.00%     60.14% # attempts to use FU when none available
system.switch_cpus.iq.fu_full::FloatDiv             0      0.00%     60.14% # attempts to use FU when none available
system.switch_cpus.iq.fu_full::FloatMisc            0      0.00%     60.14% # attempts to use FU when none available
system.switch_cpus.iq.fu_full::FloatSqrt            0      0.00%     60.14% # attempts to use FU when none available
system.switch_cpus.iq.fu_full::SimdAdd              0      0.00%     60.14% # attempts to use FU when none available
system.switch_cpus.iq.fu_full::SimdAddAcc            0      0.00%     60.14% # attempts to use FU when none available
system.switch_cpus.iq.fu_full::SimdAlu             94      0.05%     60.19% # attempts to use FU when none available
system.switch_cpus.iq.fu_full::SimdCmp              0      0.00%     60.19% # attempts to use FU when none available
system.switch_cpus.iq.fu_full::SimdCvt           3425      1.65%     61.84% # attempts to use FU when none available
system.switch_cpus.iq.fu_full::SimdMisc            15      0.01%     61.85% # attempts to use FU when none available
system.switch_cpus.iq.fu_full::SimdMult             0      0.00%     61.85% # attempts to use FU when none available
system.switch_cpus.iq.fu_full::SimdMultAcc            0      0.00%     61.85% # attempts to use FU when none available
system.switch_cpus.iq.fu_full::SimdShift            0      0.00%     61.85% # attempts to use FU when none available
system.switch_cpus.iq.fu_full::SimdShiftAcc            0      0.00%     61.85% # attempts to use FU when none available
system.switch_cpus.iq.fu_full::SimdDiv              0      0.00%     61.85% # attempts to use FU when none available
system.switch_cpus.iq.fu_full::SimdSqrt             0      0.00%     61.85% # attempts to use FU when none available
system.switch_cpus.iq.fu_full::SimdFloatAdd         1961      0.95%     62.79% # attempts to use FU when none available
system.switch_cpus.iq.fu_full::SimdFloatAlu            0      0.00%     62.79% # attempts to use FU when none available
system.switch_cpus.iq.fu_full::SimdFloatCmp            0      0.00%     62.79% # attempts to use FU when none available
system.switch_cpus.iq.fu_full::SimdFloatCvt        10188      4.92%     67.71% # attempts to use FU when none available
system.switch_cpus.iq.fu_full::SimdFloatDiv            0      0.00%     67.71% # attempts to use FU when none available
system.switch_cpus.iq.fu_full::SimdFloatMisc            0      0.00%     67.71% # attempts to use FU when none available
system.switch_cpus.iq.fu_full::SimdFloatMult            0      0.00%     67.71% # attempts to use FU when none available
system.switch_cpus.iq.fu_full::SimdFloatMultAcc            0      0.00%     67.71% # attempts to use FU when none available
system.switch_cpus.iq.fu_full::SimdFloatSqrt            0      0.00%     67.71% # attempts to use FU when none available
system.switch_cpus.iq.fu_full::SimdReduceAdd            0      0.00%     67.71% # attempts to use FU when none available
system.switch_cpus.iq.fu_full::SimdReduceAlu            0      0.00%     67.71% # attempts to use FU when none available
system.switch_cpus.iq.fu_full::SimdReduceCmp            0      0.00%     67.71% # attempts to use FU when none available
system.switch_cpus.iq.fu_full::SimdFloatReduceAdd            0      0.00%     67.71% # attempts to use FU when none available
system.switch_cpus.iq.fu_full::SimdFloatReduceCmp            0      0.00%     67.71% # attempts to use FU when none available
system.switch_cpus.iq.fu_full::SimdAes              0      0.00%     67.71% # attempts to use FU when none available
system.switch_cpus.iq.fu_full::SimdAesMix            0      0.00%     67.71% # attempts to use FU when none available
system.switch_cpus.iq.fu_full::SimdSha1Hash            0      0.00%     67.71% # attempts to use FU when none available
system.switch_cpus.iq.fu_full::SimdSha1Hash2            0      0.00%     67.71% # attempts to use FU when none available
system.switch_cpus.iq.fu_full::SimdSha256Hash            0      0.00%     67.71% # attempts to use FU when none available
system.switch_cpus.iq.fu_full::SimdSha256Hash2            0      0.00%     67.71% # attempts to use FU when none available
system.switch_cpus.iq.fu_full::SimdShaSigma2            0      0.00%     67.71% # attempts to use FU when none available
system.switch_cpus.iq.fu_full::SimdShaSigma3            0      0.00%     67.71% # attempts to use FU when none available
system.switch_cpus.iq.fu_full::SimdPredAlu            0      0.00%     67.71% # attempts to use FU when none available
system.switch_cpus.iq.fu_full::MemRead          57788     27.90%     95.61% # attempts to use FU when none available
system.switch_cpus.iq.fu_full::MemWrite           445      0.21%     95.83% # attempts to use FU when none available
system.switch_cpus.iq.fu_full::FloatMemRead         8638      4.17%    100.00% # attempts to use FU when none available
system.switch_cpus.iq.fu_full::FloatMemWrite            0      0.00%    100.00% # attempts to use FU when none available
system.switch_cpus.iq.fu_full::IprAccess            0      0.00%    100.00% # attempts to use FU when none available
system.switch_cpus.iq.fu_full::InstPrefetch            0      0.00%    100.00% # attempts to use FU when none available
system.switch_cpus.iq.int_alu_accesses       15335938                       # Number of integer alu accesses
system.switch_cpus.iq.int_inst_queue_reads     36479755                       # Number of integer instruction queue reads
system.switch_cpus.iq.int_inst_queue_wakeup_accesses     15220078                       # Number of integer instruction queue wakeup accesses
system.switch_cpus.iq.int_inst_queue_writes     16632710                       # Number of integer instruction queue writes
system.switch_cpus.iq.iqInstsAdded           17302926                       # Number of instructions added to the IQ (excludes non-spec)
system.switch_cpus.iq.iqInstsIssued          16829963                       # Number of instructions issued
system.switch_cpus.iq.iqNonSpecInstsAdded            9                       # Number of non-speculative instructions added to the IQ
system.switch_cpus.iq.iqSquashedInstsExamined      1240141                       # Number of squashed instructions iterated over during squash; mainly for profiling
system.switch_cpus.iq.iqSquashedInstsIssued        77817                       # Number of squashed instructions issued
system.switch_cpus.iq.iqSquashedNonSpecRemoved            9                       # Number of squashed non-spec instructions that were removed
system.switch_cpus.iq.iqSquashedOperandsExamined      1763765                       # Number of squashed operands that are examined and possibly removed from graph
system.switch_cpus.iq.issued_per_cycle::samples      5713165                       # Number of insts issued each cycle
system.switch_cpus.iq.issued_per_cycle::mean     2.945821                       # Number of insts issued each cycle
system.switch_cpus.iq.issued_per_cycle::stdev     2.324692                       # Number of insts issued each cycle
system.switch_cpus.iq.issued_per_cycle::underflows            0      0.00%      0.00% # Number of insts issued each cycle
system.switch_cpus.iq.issued_per_cycle::0      1164388     20.38%     20.38% # Number of insts issued each cycle
system.switch_cpus.iq.issued_per_cycle::1       636401     11.14%     31.52% # Number of insts issued each cycle
system.switch_cpus.iq.issued_per_cycle::2       873813     15.29%     46.81% # Number of insts issued each cycle
system.switch_cpus.iq.issued_per_cycle::3       836974     14.65%     61.46% # Number of insts issued each cycle
system.switch_cpus.iq.issued_per_cycle::4       723838     12.67%     74.13% # Number of insts issued each cycle
system.switch_cpus.iq.issued_per_cycle::5       613859     10.74%     84.88% # Number of insts issued each cycle
system.switch_cpus.iq.issued_per_cycle::6       341629      5.98%     90.86% # Number of insts issued each cycle
system.switch_cpus.iq.issued_per_cycle::7       257511      4.51%     95.37% # Number of insts issued each cycle
system.switch_cpus.iq.issued_per_cycle::8       264752      4.63%    100.00% # Number of insts issued each cycle
system.switch_cpus.iq.issued_per_cycle::overflows            0      0.00%    100.00% # Number of insts issued each cycle
system.switch_cpus.iq.issued_per_cycle::min_value            0                       # Number of insts issued each cycle
system.switch_cpus.iq.issued_per_cycle::max_value            8                       # Number of insts issued each cycle
system.switch_cpus.iq.issued_per_cycle::total      5713165                       # Number of insts issued each cycle
system.switch_cpus.iq.rate                   2.940765                       # Inst issue rate
system.switch_cpus.iq.vec_alu_accesses              0                       # Number of vector alu accesses
system.switch_cpus.iq.vec_inst_queue_reads            0                       # Number of vector instruction queue reads
system.switch_cpus.iq.vec_inst_queue_wakeup_accesses            0                       # Number of vector instruction queue wakeup accesses
system.switch_cpus.iq.vec_inst_queue_writes            0                       # Number of vector instruction queue writes
system.switch_cpus.itb.rdAccesses                   0                       # TLB accesses on read requests
system.switch_cpus.itb.rdMisses                     0                       # TLB misses on read requests
system.switch_cpus.itb.wrAccesses              853269                       # TLB accesses on write requests
system.switch_cpus.itb.wrMisses                    39                       # TLB misses on write requests
system.switch_cpus.memDep0.conflictingLoads       356601                       # Number of conflicting loads.
system.switch_cpus.memDep0.conflictingStores       304659                       # Number of conflicting stores.
system.switch_cpus.memDep0.insertedLoads      3708666                       # Number of loads inserted to the mem dependence unit.
system.switch_cpus.memDep0.insertedStores      1422961                       # Number of stores inserted to the mem dependence unit.
system.switch_cpus.misc_regfile_reads         6733682                       # number of misc regfile reads
system.switch_cpus.misc_regfile_writes              1                       # number of misc regfile writes
system.switch_cpus.numCycles                  5722989                       # number of cpu cycles simulated
system.switch_cpus.numWorkItemsCompleted            0                       # number of work items this cpu completed
system.switch_cpus.numWorkItemsStarted              0                       # number of work items this cpu started
system.switch_cpus.rename.BlockCycles          297600                       # Number of cycles rename is blocking
system.switch_cpus.rename.CommittedMaps      20752203                       # Number of HB maps that are committed
system.switch_cpus.rename.IQFullEvents         134371                       # Number of times rename has blocked due to IQ full
system.switch_cpus.rename.IdleCycles           868678                       # Number of cycles rename is idle
system.switch_cpus.rename.LQFullEvents         571083                       # Number of times rename has blocked due to LQ full
system.switch_cpus.rename.ROBFullEvents          3079                       # Number of times rename has blocked due to ROB full
system.switch_cpus.rename.RenameLookups      54958725                       # Number of register rename lookups that rename has made
system.switch_cpus.rename.RenamedInsts       17532629                       # Number of instructions processed by rename
system.switch_cpus.rename.RenamedOperands     22502174                       # Number of destination operands rename has renamed
system.switch_cpus.rename.RunCycles           2002521                       # Number of cycles rename is running
system.switch_cpus.rename.SQFullEvents        1566958                       # Number of times rename has blocked due to SQ full
system.switch_cpus.rename.SquashCycles          20288                       # Number of cycles rename is squashing
system.switch_cpus.rename.UnblockCycles       2524073                       # Number of cycles rename is unblocking
system.switch_cpus.rename.UndoneMaps          1749875                       # Number of HB maps that are undone due to squashing
system.switch_cpus.rename.fp_rename_lookups      3035195                       # Number of floating rename lookups
system.switch_cpus.rename.int_rename_lookups     30023466                       # Number of integer rename lookups
system.switch_cpus.rename.serializeStallCycles            0                       # count of cycles rename stalled for serializing inst
system.switch_cpus.rename.serializingInsts            0                       # count of serializing insts renamed
system.switch_cpus.rename.skidInsts           4131770                       # count of insts added to the skid buffer
system.switch_cpus.rename.tempSerializingInsts            0                       # count of temporary serializing insts renamed
system.switch_cpus.rob.rob_reads             21588187                       # The number of ROB reads
system.switch_cpus.rob.rob_writes            34772469                       # The number of ROB writes
system.switch_cpus.timesIdled                     156                       # Number of times that the entire CPU went into an idle state and unscheduled itself
system.tol2bus.snoop_filter.hit_multi_requests            0                       # Number of requests hitting in the snoop filter with multiple (>1) holders of the requested data.
system.tol2bus.snoop_filter.hit_multi_snoops            0                       # Number of snoops hitting in the snoop filter with multiple (>1) holders of the requested data.
system.tol2bus.snoop_filter.hit_single_requests        24451                       # Number of requests hitting in the snoop filter with a single holder of the requested data.
system.tol2bus.snoop_filter.hit_single_snoops         7393                       # Number of snoops hitting in the snoop filter with a single holder of the requested data.
system.tol2bus.snoop_filter.tot_requests        50048                       # Total number of requests made to the snoop filter.
system.tol2bus.snoop_filter.tot_snoops           7393                       # Total number of snoops made to the snoop filter.
system.membus.pwrStateResidencyTicks::UNDEFINED 120508301581000                       # Cumulative time (in ticks) in various power states
system.membus.trans_dist::ReadResp               2150                       # Transaction distribution
system.membus.trans_dist::WritebackDirty         3459                       # Transaction distribution
system.membus.trans_dist::CleanEvict             1537                       # Transaction distribution
system.membus.trans_dist::ReadExReq              4874                       # Transaction distribution
system.membus.trans_dist::ReadExResp             4874                       # Transaction distribution
system.membus.trans_dist::ReadSharedReq          2150                       # Transaction distribution
system.membus.pkt_count_system.l2.mem_side::system.mem_ctrls.port        19044                       # Packet count per connected master and slave (bytes)
system.membus.pkt_count_system.l2.mem_side::total        19044                       # Packet count per connected master and slave (bytes)
system.membus.pkt_count::total                  19044                       # Packet count per connected master and slave (bytes)
system.membus.pkt_size_system.l2.mem_side::system.mem_ctrls.port       670912                       # Cumulative packet size per connected master and slave (bytes)
system.membus.pkt_size_system.l2.mem_side::total       670912                       # Cumulative packet size per connected master and slave (bytes)
system.membus.pkt_size::total                  670912                       # Cumulative packet size per connected master and slave (bytes)
system.membus.snoops                                0                       # Total snoops (count)
system.membus.snoopTraffic                          0                       # Total snoop traffic (bytes)
system.membus.snoop_fanout::samples              7024                       # Request fanout histogram
system.membus.snoop_fanout::mean                    0                       # Request fanout histogram
system.membus.snoop_fanout::stdev                   0                       # Request fanout histogram
system.membus.snoop_fanout::underflows              0      0.00%      0.00% # Request fanout histogram
system.membus.snoop_fanout::0                    7024    100.00%    100.00% # Request fanout histogram
system.membus.snoop_fanout::1                       0      0.00%    100.00% # Request fanout histogram
system.membus.snoop_fanout::overflows               0      0.00%    100.00% # Request fanout histogram
system.membus.snoop_fanout::min_value               0                       # Request fanout histogram
system.membus.snoop_fanout::max_value               0                       # Request fanout histogram
system.membus.snoop_fanout::total                7024                       # Request fanout histogram
system.membus.reqLayer2.occupancy            28125000                       # Layer occupancy (ticks)
system.membus.reqLayer2.utilization               1.0                       # Layer utilization (%)
system.membus.respLayer1.occupancy           37317250                       # Layer occupancy (ticks)
system.membus.respLayer1.utilization              1.3                       # Layer utilization (%)
system.switch_cpus.pwrStateResidencyTicks::OFF   2861504750                       # Cumulative time (in ticks) in various power states
system.switch_cpus.dtb.walker.pwrStateResidencyTicks::UNDEFINED 120508301581000                       # Cumulative time (in ticks) in various power states
system.switch_cpus.itb.walker.pwrStateResidencyTicks::UNDEFINED 120508301581000                       # Cumulative time (in ticks) in various power states
system.tol2bus.pwrStateResidencyTicks::UNDEFINED 120508301581000                       # Cumulative time (in ticks) in various power states
system.tol2bus.trans_dist::ReadResp              6424                       # Transaction distribution
system.tol2bus.trans_dist::WritebackDirty        22369                       # Transaction distribution
system.tol2bus.trans_dist::WritebackClean          240                       # Transaction distribution
system.tol2bus.trans_dist::CleanEvict           12780                       # Transaction distribution
system.tol2bus.trans_dist::ReadExReq            19173                       # Transaction distribution
system.tol2bus.trans_dist::ReadExResp           19173                       # Transaction distribution
system.tol2bus.trans_dist::ReadCleanReq           362                       # Transaction distribution
system.tol2bus.trans_dist::ReadSharedReq         6062                       # Transaction distribution
system.tol2bus.pkt_count_system.cpu.icache.mem_side::system.l2.cpu_side          964                       # Packet count per connected master and slave (bytes)
system.tol2bus.pkt_count_system.cpu.dcache.mem_side::system.l2.cpu_side        74681                       # Packet count per connected master and slave (bytes)
system.tol2bus.pkt_count::total                 75645                       # Packet count per connected master and slave (bytes)
system.tol2bus.pkt_size_system.cpu.icache.mem_side::system.l2.cpu_side        38528                       # Cumulative packet size per connected master and slave (bytes)
system.tol2bus.pkt_size_system.cpu.dcache.mem_side::system.l2.cpu_side      2825280                       # Cumulative packet size per connected master and slave (bytes)
system.tol2bus.pkt_size::total                2863808                       # Cumulative packet size per connected master and slave (bytes)
system.tol2bus.snoops                           10938                       # Total snoops (count)
system.tol2bus.snoopTraffic                    221376                       # Total snoop traffic (bytes)
system.tol2bus.snoop_fanout::samples            36535                       # Request fanout histogram
system.tol2bus.snoop_fanout::mean            0.202354                       # Request fanout histogram
system.tol2bus.snoop_fanout::stdev           0.401760                       # Request fanout histogram
system.tol2bus.snoop_fanout::underflows             0      0.00%      0.00% # Request fanout histogram
system.tol2bus.snoop_fanout::0                  29142     79.76%     79.76% # Request fanout histogram
system.tol2bus.snoop_fanout::1                   7393     20.24%    100.00% # Request fanout histogram
system.tol2bus.snoop_fanout::2                      0      0.00%    100.00% # Request fanout histogram
system.tol2bus.snoop_fanout::3                      0      0.00%    100.00% # Request fanout histogram
system.tol2bus.snoop_fanout::4                      0      0.00%    100.00% # Request fanout histogram
system.tol2bus.snoop_fanout::overflows              0      0.00%    100.00% # Request fanout histogram
system.tol2bus.snoop_fanout::min_value              0                       # Request fanout histogram
system.tol2bus.snoop_fanout::max_value              1                       # Request fanout histogram
system.tol2bus.snoop_fanout::total              36535                       # Request fanout histogram
system.tol2bus.reqLayer0.occupancy           44170000                       # Layer occupancy (ticks)
system.tol2bus.reqLayer0.utilization              1.5                       # Layer utilization (%)
system.tol2bus.respLayer1.occupancy          37843999                       # Layer occupancy (ticks)
system.tol2bus.respLayer1.utilization             1.3                       # Layer utilization (%)
system.tol2bus.respLayer0.occupancy            540000                       # Layer occupancy (ticks)
system.tol2bus.respLayer0.utilization             0.0                       # Layer utilization (%)
system.voltage_domain.voltage                       1                       # Voltage in Volts
system.clk_domain.clock                          1000                       # Clock period in ticks
system.l2.pwrStateResidencyTicks::UNDEFINED 120508301581000                       # Cumulative time (in ticks) in various power states
system.l2.demand_hits::.switch_cpus.inst          228                       # number of demand (read+write) hits
system.l2.demand_hits::.switch_cpus.data        18345                       # number of demand (read+write) hits
system.l2.demand_hits::total                    18573                       # number of demand (read+write) hits
system.l2.overall_hits::.switch_cpus.inst          228                       # number of overall hits
system.l2.overall_hits::.switch_cpus.data        18345                       # number of overall hits
system.l2.overall_hits::total                   18573                       # number of overall hits
system.l2.demand_misses::.cpu.inst                  2                       # number of demand (read+write) misses
system.l2.demand_misses::.cpu.data                  6                       # number of demand (read+write) misses
system.l2.demand_misses::.switch_cpus.inst          132                       # number of demand (read+write) misses
system.l2.demand_misses::.switch_cpus.data         6884                       # number of demand (read+write) misses
system.l2.demand_misses::total                   7024                       # number of demand (read+write) misses
system.l2.overall_misses::.cpu.inst                 2                       # number of overall misses
system.l2.overall_misses::.cpu.data                 6                       # number of overall misses
system.l2.overall_misses::.switch_cpus.inst          132                       # number of overall misses
system.l2.overall_misses::.switch_cpus.data         6884                       # number of overall misses
system.l2.overall_misses::total                  7024                       # number of overall misses
system.l2.demand_miss_latency::.switch_cpus.inst     10711000                       # number of demand (read+write) miss cycles
system.l2.demand_miss_latency::.switch_cpus.data    540400000                       # number of demand (read+write) miss cycles
system.l2.demand_miss_latency::total        551111000                       # number of demand (read+write) miss cycles
system.l2.overall_miss_latency::.switch_cpus.inst     10711000                       # number of overall miss cycles
system.l2.overall_miss_latency::.switch_cpus.data    540400000                       # number of overall miss cycles
system.l2.overall_miss_latency::total       551111000                       # number of overall miss cycles
system.l2.demand_accesses::.cpu.inst                2                       # number of demand (read+write) accesses
system.l2.demand_accesses::.cpu.data                6                       # number of demand (read+write) accesses
system.l2.demand_accesses::.switch_cpus.inst          360                       # number of demand (read+write) accesses
system.l2.demand_accesses::.switch_cpus.data        25229                       # number of demand (read+write) accesses
system.l2.demand_accesses::total                25597                       # number of demand (read+write) accesses
system.l2.overall_accesses::.cpu.inst               2                       # number of overall (read+write) accesses
system.l2.overall_accesses::.cpu.data               6                       # number of overall (read+write) accesses
system.l2.overall_accesses::.switch_cpus.inst          360                       # number of overall (read+write) accesses
system.l2.overall_accesses::.switch_cpus.data        25229                       # number of overall (read+write) accesses
system.l2.overall_accesses::total               25597                       # number of overall (read+write) accesses
system.l2.demand_miss_rate::.cpu.inst               1                       # miss rate for demand accesses
system.l2.demand_miss_rate::.cpu.data               1                       # miss rate for demand accesses
system.l2.demand_miss_rate::.switch_cpus.inst     0.366667                       # miss rate for demand accesses
system.l2.demand_miss_rate::.switch_cpus.data     0.272861                       # miss rate for demand accesses
system.l2.demand_miss_rate::total            0.274407                       # miss rate for demand accesses
system.l2.overall_miss_rate::.cpu.inst              1                       # miss rate for overall accesses
system.l2.overall_miss_rate::.cpu.data              1                       # miss rate for overall accesses
system.l2.overall_miss_rate::.switch_cpus.inst     0.366667                       # miss rate for overall accesses
system.l2.overall_miss_rate::.switch_cpus.data     0.272861                       # miss rate for overall accesses
system.l2.overall_miss_rate::total           0.274407                       # miss rate for overall accesses
system.l2.demand_avg_miss_latency::.switch_cpus.inst 81143.939394                       # average overall miss latency
system.l2.demand_avg_miss_latency::.switch_cpus.data 78500.871586                       # average overall miss latency
system.l2.demand_avg_miss_latency::total 78461.133257                       # average overall miss latency
system.l2.overall_avg_miss_latency::.switch_cpus.inst 81143.939394                       # average overall miss latency
system.l2.overall_avg_miss_latency::.switch_cpus.data 78500.871586                       # average overall miss latency
system.l2.overall_avg_miss_latency::total 78461.133257                       # average overall miss latency
system.l2.blocked_cycles::no_mshrs                  0                       # number of cycles access was blocked
system.l2.blocked_cycles::no_targets                0                       # number of cycles access was blocked
system.l2.blocked::no_mshrs                         0                       # number of cycles access was blocked
system.l2.blocked::no_targets                       0                       # number of cycles access was blocked
system.l2.avg_blocked_cycles::no_mshrs            nan                       # average number of cycles each access was blocked
system.l2.avg_blocked_cycles::no_targets          nan                       # average number of cycles each access was blocked
system.l2.writebacks::.writebacks                3459                       # number of writebacks
system.l2.writebacks::total                      3459                       # number of writebacks
system.l2.demand_mshr_misses::.switch_cpus.inst          132                       # number of demand (read+write) MSHR misses
system.l2.demand_mshr_misses::.switch_cpus.data         6884                       # number of demand (read+write) MSHR misses
system.l2.demand_mshr_misses::total              7016                       # number of demand (read+write) MSHR misses
system.l2.overall_mshr_misses::.switch_cpus.inst          132                       # number of overall MSHR misses
system.l2.overall_mshr_misses::.switch_cpus.data         6884                       # number of overall MSHR misses
system.l2.overall_mshr_misses::total             7016                       # number of overall MSHR misses
system.l2.demand_mshr_miss_latency::.switch_cpus.inst      9391000                       # number of demand (read+write) MSHR miss cycles
system.l2.demand_mshr_miss_latency::.switch_cpus.data    471560000                       # number of demand (read+write) MSHR miss cycles
system.l2.demand_mshr_miss_latency::total    480951000                       # number of demand (read+write) MSHR miss cycles
system.l2.overall_mshr_miss_latency::.switch_cpus.inst      9391000                       # number of overall MSHR miss cycles
system.l2.overall_mshr_miss_latency::.switch_cpus.data    471560000                       # number of overall MSHR miss cycles
system.l2.overall_mshr_miss_latency::total    480951000                       # number of overall MSHR miss cycles
system.l2.demand_mshr_miss_rate::.switch_cpus.inst     0.366667                       # mshr miss rate for demand accesses
system.l2.demand_mshr_miss_rate::.switch_cpus.data     0.272861                       # mshr miss rate for demand accesses
system.l2.demand_mshr_miss_rate::total       0.274095                       # mshr miss rate for demand accesses
system.l2.overall_mshr_miss_rate::.switch_cpus.inst     0.366667                       # mshr miss rate for overall accesses
system.l2.overall_mshr_miss_rate::.switch_cpus.data     0.272861                       # mshr miss rate for overall accesses
system.l2.overall_mshr_miss_rate::total      0.274095                       # mshr miss rate for overall accesses
system.l2.demand_avg_mshr_miss_latency::.switch_cpus.inst 71143.939394                       # average overall mshr miss latency
system.l2.demand_avg_mshr_miss_latency::.switch_cpus.data 68500.871586                       # average overall mshr miss latency
system.l2.demand_avg_mshr_miss_latency::total 68550.598632                       # average overall mshr miss latency
system.l2.overall_avg_mshr_miss_latency::.switch_cpus.inst 71143.939394                       # average overall mshr miss latency
system.l2.overall_avg_mshr_miss_latency::.switch_cpus.data 68500.871586                       # average overall mshr miss latency
system.l2.overall_avg_mshr_miss_latency::total 68550.598632                       # average overall mshr miss latency
system.l2.replacements                          10938                       # number of replacements
system.l2.WritebackDirty_hits::.writebacks        18910                       # number of WritebackDirty hits
system.l2.WritebackDirty_hits::total            18910                       # number of WritebackDirty hits
system.l2.WritebackDirty_accesses::.writebacks        18910                       # number of WritebackDirty accesses(hits+misses)
system.l2.WritebackDirty_accesses::total        18910                       # number of WritebackDirty accesses(hits+misses)
system.l2.WritebackClean_hits::.writebacks          240                       # number of WritebackClean hits
system.l2.WritebackClean_hits::total              240                       # number of WritebackClean hits
system.l2.WritebackClean_accesses::.writebacks          240                       # number of WritebackClean accesses(hits+misses)
system.l2.WritebackClean_accesses::total          240                       # number of WritebackClean accesses(hits+misses)
system.l2.CleanEvict_mshr_misses::.writebacks         1451                       # number of CleanEvict MSHR misses
system.l2.CleanEvict_mshr_misses::total          1451                       # number of CleanEvict MSHR misses
system.l2.CleanEvict_mshr_miss_rate::.writebacks          inf                       # mshr miss rate for CleanEvict accesses
system.l2.CleanEvict_mshr_miss_rate::total          inf                       # mshr miss rate for CleanEvict accesses
system.l2.ReadExReq_hits::.switch_cpus.data        14299                       # number of ReadExReq hits
system.l2.ReadExReq_hits::total                 14299                       # number of ReadExReq hits
system.l2.ReadExReq_misses::.cpu.data               1                       # number of ReadExReq misses
system.l2.ReadExReq_misses::.switch_cpus.data         4873                       # number of ReadExReq misses
system.l2.ReadExReq_misses::total                4874                       # number of ReadExReq misses
system.l2.ReadExReq_miss_latency::.switch_cpus.data    372831500                       # number of ReadExReq miss cycles
system.l2.ReadExReq_miss_latency::total     372831500                       # number of ReadExReq miss cycles
system.l2.ReadExReq_accesses::.cpu.data             1                       # number of ReadExReq accesses(hits+misses)
system.l2.ReadExReq_accesses::.switch_cpus.data        19172                       # number of ReadExReq accesses(hits+misses)
system.l2.ReadExReq_accesses::total             19173                       # number of ReadExReq accesses(hits+misses)
system.l2.ReadExReq_miss_rate::.cpu.data            1                       # miss rate for ReadExReq accesses
system.l2.ReadExReq_miss_rate::.switch_cpus.data     0.254173                       # miss rate for ReadExReq accesses
system.l2.ReadExReq_miss_rate::total         0.254212                       # miss rate for ReadExReq accesses
system.l2.ReadExReq_avg_miss_latency::.switch_cpus.data 76509.644983                       # average ReadExReq miss latency
system.l2.ReadExReq_avg_miss_latency::total 76493.947476                       # average ReadExReq miss latency
system.l2.ReadExReq_mshr_misses::.switch_cpus.data         4873                       # number of ReadExReq MSHR misses
system.l2.ReadExReq_mshr_misses::total           4873                       # number of ReadExReq MSHR misses
system.l2.ReadExReq_mshr_miss_latency::.switch_cpus.data    324101500                       # number of ReadExReq MSHR miss cycles
system.l2.ReadExReq_mshr_miss_latency::total    324101500                       # number of ReadExReq MSHR miss cycles
system.l2.ReadExReq_mshr_miss_rate::.switch_cpus.data     0.254173                       # mshr miss rate for ReadExReq accesses
system.l2.ReadExReq_mshr_miss_rate::total     0.254159                       # mshr miss rate for ReadExReq accesses
system.l2.ReadExReq_avg_mshr_miss_latency::.switch_cpus.data 66509.644983                       # average ReadExReq mshr miss latency
system.l2.ReadExReq_avg_mshr_miss_latency::total 66509.644983                       # average ReadExReq mshr miss latency
system.l2.ReadCleanReq_hits::.switch_cpus.inst          228                       # number of ReadCleanReq hits
system.l2.ReadCleanReq_hits::total                228                       # number of ReadCleanReq hits
system.l2.ReadCleanReq_misses::.cpu.inst            2                       # number of ReadCleanReq misses
system.l2.ReadCleanReq_misses::.switch_cpus.inst          132                       # number of ReadCleanReq misses
system.l2.ReadCleanReq_misses::total              134                       # number of ReadCleanReq misses
system.l2.ReadCleanReq_miss_latency::.switch_cpus.inst     10711000                       # number of ReadCleanReq miss cycles
system.l2.ReadCleanReq_miss_latency::total     10711000                       # number of ReadCleanReq miss cycles
system.l2.ReadCleanReq_accesses::.cpu.inst            2                       # number of ReadCleanReq accesses(hits+misses)
system.l2.ReadCleanReq_accesses::.switch_cpus.inst          360                       # number of ReadCleanReq accesses(hits+misses)
system.l2.ReadCleanReq_accesses::total            362                       # number of ReadCleanReq accesses(hits+misses)
system.l2.ReadCleanReq_miss_rate::.cpu.inst            1                       # miss rate for ReadCleanReq accesses
system.l2.ReadCleanReq_miss_rate::.switch_cpus.inst     0.366667                       # miss rate for ReadCleanReq accesses
[...]
system.cpu.itb_walker_cache.blocked_cycles::no_mshrs            0                       # number of cycles access was blocked
system.cpu.itb_walker_cache.blocked_cycles::no_targets            0                       # number of cycles access was blocked
system.cpu.itb_walker_cache.blocked::no_mshrs            0                       # number of cycles access was blocked
system.cpu.itb_walker_cache.blocked::no_targets            0                       # number of cycles access was blocked
system.cpu.itb_walker_cache.avg_blocked_cycles::no_mshrs          nan                       # average number of cycles each access was blocked
system.cpu.itb_walker_cache.avg_blocked_cycles::no_targets          nan                       # average number of cycles each access was blocked
system.cpu.itb_walker_cache.replacements            0                       # number of replacements
system.cpu.itb_walker_cache.tags.pwrStateResidencyTicks::UNDEFINED 120516758859500                       # Cumulative time (in ticks) in various power states
system.cpu.itb_walker_cache.tags.tagsinuse            0                       # Cycle average of tags in use
system.cpu.itb_walker_cache.tags.total_refs            0                       # Total number of references to valid blocks.
system.cpu.itb_walker_cache.tags.sampled_refs            0                       # Sample count of references to valid blocks.
system.cpu.itb_walker_cache.tags.avg_refs          nan                       # Average number of references to valid blocks.
system.cpu.itb_walker_cache.tags.warmup_cycle            0                       # Cycle when the warmup percentage was hit.
system.cpu.itb_walker_cache.tags.tag_accesses            0                       # Number of tag accesses
system.cpu.itb_walker_cache.tags.data_accesses            0                       # Number of data accesses
system.cpu.itb.walker.pwrStateResidencyTicks::UNDEFINED 120516758859500                       # Cumulative time (in ticks) in various power states
system.cpu.dtb_walker_cache.pwrStateResidencyTicks::UNDEFINED 120516758859500                       # Cumulative time (in ticks) in various power states
system.cpu.dtb_walker_cache.blocked_cycles::no_mshrs            0                       # number of cycles access was blocked
system.cpu.dtb_walker_cache.blocked_cycles::no_targets            0                       # number of cycles access was blocked
system.cpu.dtb_walker_cache.blocked::no_mshrs            0                       # number of cycles access was blocked
system.cpu.dtb_walker_cache.blocked::no_targets            0                       # number of cycles access was blocked
system.cpu.dtb_walker_cache.avg_blocked_cycles::no_mshrs          nan                       # average number of cycles each access was blocked
system.cpu.dtb_walker_cache.avg_blocked_cycles::no_targets          nan                       # average number of cycles each access was blocked
system.cpu.dtb_walker_cache.replacements            0                       # number of replacements
system.cpu.dtb_walker_cache.tags.pwrStateResidencyTicks::UNDEFINED 120516758859500                       # Cumulative time (in ticks) in various power states
system.cpu.dtb_walker_cache.tags.tagsinuse            0                       # Cycle average of tags in use
system.cpu.dtb_walker_cache.tags.total_refs            0                       # Total number of references to valid blocks.
system.cpu.dtb_walker_cache.tags.sampled_refs            0                       # Sample count of references to valid blocks.
system.cpu.dtb_walker_cache.tags.avg_refs          nan                       # Average number of references to valid blocks.
system.cpu.dtb_walker_cache.tags.warmup_cycle            0                       # Cycle when the warmup percentage was hit.
system.cpu.dtb_walker_cache.tags.tag_accesses            0                       # Number of tag accesses
system.cpu.dtb_walker_cache.tags.data_accesses            0                       # Number of data accesses
system.cpu.dcache.pwrStateResidencyTicks::UNDEFINED 120516758859500                       # Cumulative time (in ticks) in various power states
system.cpu.dcache.demand_hits::.cpu.data            2                       # number of demand (read+write) hits
system.cpu.dcache.demand_hits::.switch_cpus.data     18682908                       # number of demand (read+write) hits
system.cpu.dcache.demand_hits::total         18682910                       # number of demand (read+write) hits
system.cpu.dcache.overall_hits::.cpu.data            2                       # number of overall hits
system.cpu.dcache.overall_hits::.switch_cpus.data     18682908                       # number of overall hits
system.cpu.dcache.overall_hits::total        18682910                       # number of overall hits
system.cpu.dcache.demand_misses::.cpu.data            6                       # number of demand (read+write) misses
system.cpu.dcache.demand_misses::.switch_cpus.data       109104                       # number of demand (read+write) misses
system.cpu.dcache.demand_misses::total         109110                       # number of demand (read+write) misses
system.cpu.dcache.overall_misses::.cpu.data            6                       # number of overall misses
system.cpu.dcache.overall_misses::.switch_cpus.data       109104                       # number of overall misses
system.cpu.dcache.overall_misses::total        109110                       # number of overall misses
system.cpu.dcache.demand_miss_latency::.switch_cpus.data   3224429988                       # number of demand (read+write) miss cycles
system.cpu.dcache.demand_miss_latency::total   3224429988                       # number of demand (read+write) miss cycles
system.cpu.dcache.overall_miss_latency::.switch_cpus.data   3224429988                       # number of overall miss cycles
system.cpu.dcache.overall_miss_latency::total   3224429988                       # number of overall miss cycles
system.cpu.dcache.demand_accesses::.cpu.data            8                       # number of demand (read+write) accesses
system.cpu.dcache.demand_accesses::.switch_cpus.data     18792012                       # number of demand (read+write) accesses
system.cpu.dcache.demand_accesses::total     18792020                       # number of demand (read+write) accesses
system.cpu.dcache.overall_accesses::.cpu.data            8                       # number of overall (read+write) accesses
system.cpu.dcache.overall_accesses::.switch_cpus.data     18792012                       # number of overall (read+write) accesses
system.cpu.dcache.overall_accesses::total     18792020                       # number of overall (read+write) accesses
system.cpu.dcache.demand_miss_rate::.cpu.data     0.750000                       # miss rate for demand accesses
system.cpu.dcache.demand_miss_rate::.switch_cpus.data     0.005806                       # miss rate for demand accesses
system.cpu.dcache.demand_miss_rate::total     0.005806                       # miss rate for demand accesses
system.cpu.dcache.overall_miss_rate::.cpu.data     0.750000                       # miss rate for overall accesses
system.cpu.dcache.overall_miss_rate::.switch_cpus.data     0.005806                       # miss rate for overall accesses
system.cpu.dcache.overall_miss_rate::total     0.005806                       # miss rate for overall accesses
system.cpu.dcache.demand_avg_miss_latency::.switch_cpus.data 29553.728443                       # average overall miss latency
system.cpu.dcache.demand_avg_miss_latency::total 29552.103272                       # average overall miss latency
system.cpu.dcache.overall_avg_miss_latency::.switch_cpus.data 29553.728443                       # average overall miss latency
system.cpu.dcache.overall_avg_miss_latency::total 29552.103272                       # average overall miss latency
system.cpu.dcache.blocked_cycles::no_mshrs        25198                       # number of cycles access was blocked
system.cpu.dcache.blocked_cycles::no_targets            0                       # number of cycles access was blocked
system.cpu.dcache.blocked::no_mshrs              1016                       # number of cycles access was blocked
system.cpu.dcache.blocked::no_targets               0                       # number of cycles access was blocked
system.cpu.dcache.avg_blocked_cycles::no_mshrs    24.801181                       # average number of cycles each access was blocked
system.cpu.dcache.avg_blocked_cycles::no_targets          nan                       # average number of cycles each access was blocked
system.cpu.dcache.writebacks::.writebacks        81542                       # number of writebacks
system.cpu.dcache.writebacks::total             81542                       # number of writebacks
system.cpu.dcache.demand_mshr_hits::.switch_cpus.data         4133                       # number of demand (read+write) MSHR hits
system.cpu.dcache.demand_mshr_hits::total         4133                       # number of demand (read+write) MSHR hits
system.cpu.dcache.overall_mshr_hits::.switch_cpus.data         4133                       # number of overall MSHR hits
system.cpu.dcache.overall_mshr_hits::total         4133                       # number of overall MSHR hits
system.cpu.dcache.demand_mshr_misses::.switch_cpus.data       104971                       # number of demand (read+write) MSHR misses
system.cpu.dcache.demand_mshr_misses::total       104971                       # number of demand (read+write) MSHR misses
system.cpu.dcache.overall_mshr_misses::.switch_cpus.data       104971                       # number of overall MSHR misses
system.cpu.dcache.overall_mshr_misses::total       104971                       # number of overall MSHR misses
system.cpu.dcache.demand_mshr_miss_latency::.switch_cpus.data   2995074988                       # number of demand (read+write) MSHR miss cycles
system.cpu.dcache.demand_mshr_miss_latency::total   2995074988                       # number of demand (read+write) MSHR miss cycles
system.cpu.dcache.overall_mshr_miss_latency::.switch_cpus.data   2995074988                       # number of overall MSHR miss cycles
system.cpu.dcache.overall_mshr_miss_latency::total   2995074988                       # number of overall MSHR miss cycles
system.cpu.dcache.demand_mshr_miss_rate::.switch_cpus.data     0.005586                       # mshr miss rate for demand accesses
system.cpu.dcache.demand_mshr_miss_rate::total     0.005586                       # mshr miss rate for demand accesses
system.cpu.dcache.overall_mshr_miss_rate::.switch_cpus.data     0.005586                       # mshr miss rate for overall accesses
system.cpu.dcache.overall_mshr_miss_rate::total     0.005586                       # mshr miss rate for overall accesses
system.cpu.dcache.demand_avg_mshr_miss_latency::.switch_cpus.data 28532.404074                       # average overall mshr miss latency
system.cpu.dcache.demand_avg_mshr_miss_latency::total 28532.404074                       # average overall mshr miss latency
system.cpu.dcache.overall_avg_mshr_miss_latency::.switch_cpus.data 28532.404074                       # average overall mshr miss latency
system.cpu.dcache.overall_avg_mshr_miss_latency::total 28532.404074                       # average overall mshr miss latency
system.cpu.dcache.replacements                 103953                       # number of replacements
system.cpu.dcache.ReadReq_hits::.cpu.data            1                       # number of ReadReq hits
system.cpu.dcache.ReadReq_hits::.switch_cpus.data     13168336                       # number of ReadReq hits
system.cpu.dcache.ReadReq_hits::total        13168337                       # number of ReadReq hits
system.cpu.dcache.ReadReq_misses::.cpu.data            5                       # number of ReadReq misses
system.cpu.dcache.ReadReq_misses::.switch_cpus.data        28772                       # number of ReadReq misses
system.cpu.dcache.ReadReq_misses::total         28777                       # number of ReadReq misses
system.cpu.dcache.ReadReq_miss_latency::.switch_cpus.data    991786000                       # number of ReadReq miss cycles
system.cpu.dcache.ReadReq_miss_latency::total    991786000                       # number of ReadReq miss cycles
system.cpu.dcache.ReadReq_accesses::.cpu.data            6                       # number of ReadReq accesses(hits+misses)
system.cpu.dcache.ReadReq_accesses::.switch_cpus.data     13197108                       # number of ReadReq accesses(hits+misses)
system.cpu.dcache.ReadReq_accesses::total     13197114                       # number of ReadReq accesses(hits+misses)
system.cpu.dcache.ReadReq_miss_rate::.cpu.data     0.833333                       # miss rate for ReadReq accesses
system.cpu.dcache.ReadReq_miss_rate::.switch_cpus.data     0.002180                       # miss rate for ReadReq accesses
system.cpu.dcache.ReadReq_miss_rate::total     0.002181                       # miss rate for ReadReq accesses
system.cpu.dcache.ReadReq_avg_miss_latency::.switch_cpus.data 34470.526901                       # average ReadReq miss latency
system.cpu.dcache.ReadReq_avg_miss_latency::total 34464.537652                       # average ReadReq miss latency
system.cpu.dcache.ReadReq_mshr_hits::.switch_cpus.data         4133                       # number of ReadReq MSHR hits
system.cpu.dcache.ReadReq_mshr_hits::total         4133                       # number of ReadReq MSHR hits
system.cpu.dcache.ReadReq_mshr_misses::.switch_cpus.data        24639                       # number of ReadReq MSHR misses
system.cpu.dcache.ReadReq_mshr_misses::total        24639                       # number of ReadReq MSHR misses
system.cpu.dcache.ReadReq_mshr_miss_latency::.switch_cpus.data    842763000                       # number of ReadReq MSHR miss cycles
system.cpu.dcache.ReadReq_mshr_miss_latency::total    842763000                       # number of ReadReq MSHR miss cycles
system.cpu.dcache.ReadReq_mshr_miss_rate::.switch_cpus.data     0.001867                       # mshr miss rate for ReadReq accesses
system.cpu.dcache.ReadReq_mshr_miss_rate::total     0.001867                       # mshr miss rate for ReadReq accesses
system.cpu.dcache.ReadReq_avg_mshr_miss_latency::.switch_cpus.data 34204.431998                       # average ReadReq mshr miss latency
system.cpu.dcache.ReadReq_avg_mshr_miss_latency::total 34204.431998                       # average ReadReq mshr miss latency
system.cpu.dcache.WriteReq_hits::.cpu.data            1                       # number of WriteReq hits
system.cpu.dcache.WriteReq_hits::.switch_cpus.data      5514572                       # number of WriteReq hits
system.cpu.dcache.WriteReq_hits::total        5514573                       # number of WriteReq hits
system.cpu.dcache.WriteReq_misses::.cpu.data            1                       # number of WriteReq misses
system.cpu.dcache.WriteReq_misses::.switch_cpus.data        80332                       # number of WriteReq misses
system.cpu.dcache.WriteReq_misses::total        80333                       # number of WriteReq misses
system.cpu.dcache.WriteReq_miss_latency::.switch_cpus.data   2232643988                       # number of WriteReq miss cycles
system.cpu.dcache.WriteReq_miss_latency::total   2232643988                       # number of WriteReq miss cycles
system.cpu.dcache.WriteReq_accesses::.cpu.data            2                       # number of WriteReq accesses(hits+misses)
system.cpu.dcache.WriteReq_accesses::.switch_cpus.data      5594904                       # number of WriteReq accesses(hits+misses)
system.cpu.dcache.WriteReq_accesses::total      5594906                       # number of WriteReq accesses(hits+misses)
system.cpu.dcache.WriteReq_miss_rate::.cpu.data     0.500000                       # miss rate for WriteReq accesses
system.cpu.dcache.WriteReq_miss_rate::.switch_cpus.data     0.014358                       # miss rate for WriteReq accesses
system.cpu.dcache.WriteReq_miss_rate::total     0.014358                       # miss rate for WriteReq accesses
system.cpu.dcache.WriteReq_avg_miss_latency::.switch_cpus.data 27792.710103                       # average WriteReq miss latency
system.cpu.dcache.WriteReq_avg_miss_latency::total 27792.364134                       # average WriteReq miss latency
system.cpu.dcache.WriteReq_mshr_misses::.switch_cpus.data        80332                       # number of WriteReq MSHR misses
system.cpu.dcache.WriteReq_mshr_misses::total        80332                       # number of WriteReq MSHR misses
system.cpu.dcache.WriteReq_mshr_miss_latency::.switch_cpus.data   2152311988                       # number of WriteReq MSHR miss cycles
system.cpu.dcache.WriteReq_mshr_miss_latency::total   2152311988                       # number of WriteReq MSHR miss cycles
system.cpu.dcache.WriteReq_mshr_miss_rate::.switch_cpus.data     0.014358                       # mshr miss rate for WriteReq accesses
system.cpu.dcache.WriteReq_mshr_miss_rate::total     0.014358                       # mshr miss rate for WriteReq accesses
system.cpu.dcache.WriteReq_avg_mshr_miss_latency::.switch_cpus.data 26792.710103                       # average WriteReq mshr miss latency
system.cpu.dcache.WriteReq_avg_mshr_miss_latency::total 26792.710103                       # average WriteReq mshr miss latency
system.cpu.dcache.tags.pwrStateResidencyTicks::UNDEFINED 120516758859500                       # Cumulative time (in ticks) in various power states
system.cpu.dcache.tags.tagsinuse             0.095557                       # Cycle average of tags in use
system.cpu.dcache.tags.total_refs            18787887                       # Total number of references to valid blocks.
system.cpu.dcache.tags.sampled_refs            104977                       # Sample count of references to valid blocks.
system.cpu.dcache.tags.avg_refs            178.971460                       # Average number of references to valid blocks.
system.cpu.dcache.tags.warmup_cycle      120505440077000                       # Cycle when the warmup percentage was hit.
system.cpu.dcache.tags.occ_blocks::.cpu.data     0.000305                       # Average occupied blocks per requestor
system.cpu.dcache.tags.occ_blocks::.switch_cpus.data     0.095252                       # Average occupied blocks per requestor
system.cpu.dcache.tags.occ_percent::.cpu.data     0.000000                       # Average percentage of cache occupancy
system.cpu.dcache.tags.occ_percent::.switch_cpus.data     0.000093                       # Average percentage of cache occupancy
system.cpu.dcache.tags.occ_percent::total     0.000093                       # Average percentage of cache occupancy
system.cpu.dcache.tags.occ_task_id_blocks::1024         1024                       # Occupied blocks per task id
system.cpu.dcache.tags.age_task_id_blocks_1024::0            8                       # Occupied blocks per task id
system.cpu.dcache.tags.age_task_id_blocks_1024::1          784                       # Occupied blocks per task id
system.cpu.dcache.tags.age_task_id_blocks_1024::2          197                       # Occupied blocks per task id
system.cpu.dcache.tags.age_task_id_blocks_1024::3           16                       # Occupied blocks per task id
system.cpu.dcache.tags.age_task_id_blocks_1024::4           19                       # Occupied blocks per task id
system.cpu.dcache.tags.occ_task_id_percent::1024            1                       # Percentage of cache occupancy per task id
system.cpu.dcache.tags.tag_accesses          37689017                       # Number of tag accesses
system.cpu.dcache.tags.data_accesses         37689017                       # Number of data accesses

---------- End Simulation Statistics   ----------
