
---------- Begin Simulation Statistics ----------
final_tick                               572574721809500                       # Number of ticks from beginning of simulation (restored from checkpoints and never reset)
host_inst_rate                                  52099                       # Simulator instruction rate (inst/s)
host_mem_usage                                 880064                       # Number of bytes of host memory used
host_op_rate                                   117105                       # Simulator op (including micro ops) rate (op/s)
host_seconds                                   191.94                       # Real time elapsed on the host
host_tick_rate                               38598084                       # Simulator tick rate (ticks/s)
sim_freq                                 1000000000000                       # Frequency of simulated ticks
sim_insts                                    10000011                       # Number of instructions simulated
sim_ops                                      22477223                       # Number of ops (including micro ops) simulated
sim_seconds                                  0.007409                       # Number of seconds simulated
sim_ticks                                  7408555750                       # Number of ticks simulated
system.cpu.committedInsts                           8                       # Number of instructions committed
system.cpu.committedOps                            14                       # Number of ops (including micro ops) committed
system.cpu.dtb.rdAccesses                           4                       # TLB accesses on read requests
system.cpu.dtb.rdMisses                             0                       # TLB misses on read requests
system.cpu.dtb.wrAccesses                           2                       # TLB accesses on write requests
system.cpu.dtb.wrMisses                             0                       # TLB misses on write requests
system.cpu.idle_fraction                            0                       # Percentage of idle cycles
system.cpu.itb.rdAccesses                           0                       # TLB accesses on read requests
system.cpu.itb.rdMisses                             0                       # TLB misses on read requests
system.cpu.itb.wrAccesses                          14                       # TLB accesses on write requests
system.cpu.itb.wrMisses                             0                       # TLB misses on write requests
system.cpu.not_idle_fraction                        1                       # Percentage of non-idle cycles
system.cpu.numCycles                               20                       # number of cpu cycles simulated
system.cpu.numWorkItemsCompleted                    0                       # number of work items this cpu completed
system.cpu.numWorkItemsStarted                      0                       # number of work items this cpu started
system.cpu.num_busy_cycles                         20                       # Number of busy cycles
system.cpu.num_conditional_control_insts            0                       # number of instructions that are conditional controls
system.cpu.num_fp_alu_accesses                     12                       # Number of float alu accesses
system.cpu.num_fp_insts                            12                       # number of float instructions
system.cpu.num_fp_register_reads                   22                       # number of times the floating registers were read
system.cpu.num_fp_register_writes                  10                       # number of times the floating registers were written
system.cpu.num_func_calls                           0                       # number of times a function call or return occured
system.cpu.num_idle_cycles                          0                       # Number of idle cycles
system.cpu.num_int_alu_accesses                     6                       # Number of integer alu accesses
system.cpu.num_int_insts                            6                       # number of integer instructions
system.cpu.num_int_register_reads                  18                       # number of times the integer registers were read
system.cpu.num_int_register_writes                  2                       # number of times the integer registers were written
system.cpu.num_load_insts                           4                       # Number of load instructions
system.cpu.num_mem_refs                             6                       # number of memory refs
system.cpu.num_store_insts                          2                       # Number of store instructions
system.cpu.num_vec_alu_accesses                     0                       # Number of vector alu accesses
system.cpu.num_vec_insts                            0                       # number of vector instructions
system.cpu.num_vec_register_reads                   0                       # number of times the vector registers were read
system.cpu.num_vec_register_writes                  0                       # number of times the vector registers were written
system.cpu.op_class::No_OpClass                     0      0.00%      0.00% # Class of executed instruction
system.cpu.op_class::IntAlu                         4     28.57%     28.57% # Class of executed instruction
system.cpu.op_class::IntMult                        0      0.00%     28.57% # Class of executed instruction
system.cpu.op_class::IntDiv                         0      0.00%     28.57% # Class of executed instruction
system.cpu.op_class::FloatAdd                       0      0.00%     28.57% # Class of executed instruction
system.cpu.op_class::FloatCmp                       0      0.00%     28.57% # Class of executed instruction
system.cpu.op_class::FloatCvt                       0      0.00%     28.57% # Class of executed instruction
system.cpu.op_class::FloatMult                      0      0.00%     28.57% # Class of executed instruction
system.cpu.op_class::FloatMultAcc                   0      0.00%     28.57% # Class of executed instruction
system.cpu.op_class::FloatDiv                       0      0.00%     28.57% # Class of executed instruction
system.cpu.op_class::FloatMisc                      0      0.00%     28.57% # Class of executed instruction
system.cpu.op_class::FloatSqrt                      0      0.00%     28.57% # Class of executed instruction
system.cpu.op_class::SimdAdd                        0      0.00%     28.57% # Class of executed instruction
system.cpu.op_class::SimdAddAcc                     0      0.00%     28.57% # Class of executed instruction
system.cpu.op_class::SimdAlu                        0      0.00%     28.57% # Class of executed instruction
system.cpu.op_class::SimdCmp                        0      0.00%     28.57% # Class of executed instruction
system.cpu.op_class::SimdCvt                        0      0.00%     28.57% # Class of executed instruction
system.cpu.op_class::SimdMisc                       0      0.00%     28.57% # Class of executed instruction
system.cpu.op_class::SimdMult                       0      0.00%     28.57% # Class of executed instruction
system.cpu.op_class::SimdMultAcc                    0      0.00%     28.57% # Class of executed instruction
system.cpu.op_class::SimdShift                      0      0.00%     28.57% # Class of executed instruction
system.cpu.op_class::SimdShiftAcc                   0      0.00%     28.57% # Class of executed instruction
system.cpu.op_class::SimdDiv                        0      0.00%     28.57% # Class of executed instruction
system.cpu.op_class::SimdSqrt                       0      0.00%     28.57% # Class of executed instruction
system.cpu.op_class::SimdFloatAdd                   2     14.29%     42.86% # Class of executed instruction
system.cpu.op_class::SimdFloatAlu                   0      0.00%     42.86% # Class of executed instruction
system.cpu.op_class::SimdFloatCmp                   0      0.00%     42.86% # Class of executed instruction
system.cpu.op_class::SimdFloatCvt                   0      0.00%     42.86% # Class of executed instruction
system.cpu.op_class::SimdFloatDiv                   0      0.00%     42.86% # Class of executed instruction
system.cpu.op_class::SimdFloatMisc                  0      0.00%     42.86% # Class of executed instruction
system.cpu.op_class::SimdFloatMult                  2     14.29%     57.14% # Class of executed instruction
system.cpu.op_class::SimdFloatMultAcc               0      0.00%     57.14% # Class of executed instruction
system.cpu.op_class::SimdFloatSqrt                  0      0.00%     57.14% # Class of executed instruction
system.cpu.op_class::SimdReduceAdd                  0      0.00%     57.14% # Class of executed instruction
system.cpu.op_class::SimdReduceAlu                  0      0.00%     57.14% # Class of executed instruction
system.cpu.op_class::SimdReduceCmp                  0      0.00%     57.14% # Class of executed instruction
system.cpu.op_class::SimdFloatReduceAdd             0      0.00%     57.14% # Class of executed instruction
system.cpu.op_class::SimdFloatReduceCmp             0      0.00%     57.14% # Class of executed instruction
system.cpu.op_class::SimdAes                        0      0.00%     57.14% # Class of executed instruction
system.cpu.op_class::SimdAesMix                     0      0.00%     57.14% # Class of executed instruction
system.cpu.op_class::SimdSha1Hash                   0      0.00%     57.14% # Class of executed instruction
system.cpu.op_class::SimdSha1Hash2                  0      0.00%     57.14% # Class of executed instruction
system.cpu.op_class::SimdSha256Hash                 0      0.00%     57.14% # Class of executed instruction
system.cpu.op_class::SimdSha256Hash2                0      0.00%     57.14% # Class of executed instruction
system.cpu.op_class::SimdShaSigma2                  0      0.00%     57.14% # Class of executed instruction
system.cpu.op_class::SimdShaSigma3                  0      0.00%     57.14% # Class of executed instruction
system.cpu.op_class::SimdPredAlu                    0      0.00%     57.14% # Class of executed instruction
system.cpu.op_class::MemRead                        2     14.29%     71.43% # Class of executed instruction
system.cpu.op_class::MemWrite                       0      0.00%     71.43% # Class of executed instruction
system.cpu.op_class::FloatMemRead                   2     14.29%     85.71% # Class of executed instruction
system.cpu.op_class::FloatMemWrite                  2     14.29%    100.00% # Class of executed instruction
system.cpu.op_class::IprAccess                      0      0.00%    100.00% # Class of executed instruction
system.cpu.op_class::InstPrefetch                   0      0.00%    100.00% # Class of executed instruction
system.cpu.op_class::total                         14                       # Class of executed instruction
system.cpu.workload.numSyscalls                     0                       # Number of system calls
system.membus.snoop_filter.hit_multi_requests            0                       # Number of requests hitting in the snoop filter with multiple (>1) holders of the requested data.
system.membus.snoop_filter.hit_multi_snoops            0                       # Number of snoops hitting in the snoop filter with multiple (>1) holders of the requested data.
system.membus.snoop_filter.hit_single_requests        75670                       # Number of requests hitting in the snoop filter with a single holder of the requested data.
system.membus.snoop_filter.hit_single_snoops            0                       # Number of snoops hitting in the snoop filter with a single holder of the requested data.
system.membus.snoop_filter.tot_requests        159812                       # Total number of requests made to the snoop filter.
system.membus.snoop_filter.tot_snoops               0                       # Total number of snoops made to the snoop filter.
system.switch_cpus.branchPred.BTBCorrect            0                       # Number of correct BTB predictions (this stat may not work properly.
system.switch_cpus.branchPred.BTBHitPct      0.000000                       # BTB Hit Percentage
system.switch_cpus.branchPred.BTBHits               0                       # Number of BTB hits
system.switch_cpus.branchPred.BTBLookups        35139                       # Number of BTB lookups
system.switch_cpus.branchPred.RASInCorrect            0                       # Number of incorrect RAS predictions.
system.switch_cpus.branchPred.condIncorrect          807                       # Number of conditional branches incorrect
system.switch_cpus.branchPred.condPredicted        40235                       # Number of conditional branches predicted
system.switch_cpus.branchPred.indirectHits        28168                       # Number of indirect target hits.
system.switch_cpus.branchPred.indirectLookups        35139                       # Number of indirect predictor lookups.
system.switch_cpus.branchPred.indirectMisses         6971                       # Number of indirect misses.
system.switch_cpus.branchPred.lookups           45736                       # Number of BP lookups
system.switch_cpus.branchPred.usedRAS            5127                       # Number of times the RAS was used to get a target.
system.switch_cpus.branchPredindirectMispredicted           60                       # Number of mispredicted indirect branches.
system.switch_cpus.cc_regfile_reads            196484                       # number of cc regfile reads
system.switch_cpus.cc_regfile_writes           329222                       # number of cc regfile writes
system.switch_cpus.commit.amos                      0                       # Number of atomic instructions committed
system.switch_cpus.commit.branchMispredicts          807                       # The number of times a branch was mispredicted
system.switch_cpus.commit.branches              19425                       # Number of branches committed
system.switch_cpus.commit.bw_lim_events       1559709                       # number cycles where commit BW limit reached
system.switch_cpus.commit.commitNonSpecStalls          320                       # The number of times commit has been forced to stall to communicate backwards
system.switch_cpus.commit.commitSquashedInsts       469093                       # The number of squashed insts skipped by commit
system.switch_cpus.commit.committedInsts     10000003                       # Number of instructions committed
system.switch_cpus.commit.committedOps       22477209                       # Number of ops (including micro ops) committed
system.switch_cpus.commit.committed_per_cycle::samples     14724235                       # Number of insts commited each cycle
system.switch_cpus.commit.committed_per_cycle::mean     1.526545                       # Number of insts commited each cycle
system.switch_cpus.commit.committed_per_cycle::stdev     2.719152                       # Number of insts commited each cycle
system.switch_cpus.commit.committed_per_cycle::underflows            0      0.00%      0.00% # Number of insts commited each cycle
system.switch_cpus.commit.committed_per_cycle::0     10065171     68.36%     68.36% # Number of insts commited each cycle
system.switch_cpus.commit.committed_per_cycle::1       671996      4.56%     72.92% # Number of insts commited each cycle
system.switch_cpus.commit.committed_per_cycle::2       819409      5.57%     78.49% # Number of insts commited each cycle
system.switch_cpus.commit.committed_per_cycle::3       259164      1.76%     80.25% # Number of insts commited each cycle
system.switch_cpus.commit.committed_per_cycle::4       560499      3.81%     84.05% # Number of insts commited each cycle
system.switch_cpus.commit.committed_per_cycle::5       258449      1.76%     85.81% # Number of insts commited each cycle
system.switch_cpus.commit.committed_per_cycle::6       331876      2.25%     88.06% # Number of insts commited each cycle
system.switch_cpus.commit.committed_per_cycle::7       197962      1.34%     89.41% # Number of insts commited each cycle
system.switch_cpus.commit.committed_per_cycle::8      1559709     10.59%    100.00% # Number of insts commited each cycle
system.switch_cpus.commit.committed_per_cycle::overflows            0      0.00%    100.00% # Number of insts commited each cycle
system.switch_cpus.commit.committed_per_cycle::min_value            0                       # Number of insts commited each cycle
system.switch_cpus.commit.committed_per_cycle::max_value            8                       # Number of insts commited each cycle
system.switch_cpus.commit.committed_per_cycle::total     14724235                       # Number of insts commited each cycle
system.switch_cpus.commit.fp_insts           21302588                       # Number of committed floating point instructions.
system.switch_cpus.commit.function_calls          320                       # Number of function calls committed.
system.switch_cpus.commit.int_insts          10363628                       # Number of committed integer instructions.
system.switch_cpus.commit.loads               7651059                       # Number of loads committed
system.switch_cpus.commit.membars                   0                       # Number of memory barriers committed
system.switch_cpus.commit.op_class_0::No_OpClass          637      0.00%      0.00% # Class of committed instruction
system.switch_cpus.commit.op_class_0::IntAlu      3034818     13.50%     13.50% # Class of committed instruction
system.switch_cpus.commit.op_class_0::IntMult          658      0.00%     13.51% # Class of committed instruction
system.switch_cpus.commit.op_class_0::IntDiv            0      0.00%     13.51% # Class of committed instruction
system.switch_cpus.commit.op_class_0::FloatAdd          328      0.00%     13.51% # Class of committed instruction
system.switch_cpus.commit.op_class_0::FloatCmp            0      0.00%     13.51% # Class of committed instruction
system.switch_cpus.commit.op_class_0::FloatCvt            0      0.00%     13.51% # Class of committed instruction
system.switch_cpus.commit.op_class_0::FloatMult            0      0.00%     13.51% # Class of committed instruction
system.switch_cpus.commit.op_class_0::FloatMultAcc            0      0.00%     13.51% # Class of committed instruction
system.switch_cpus.commit.op_class_0::FloatDiv            0      0.00%     13.51% # Class of committed instruction
system.switch_cpus.commit.op_class_0::FloatMisc            0      0.00%     13.51% # Class of committed instruction
system.switch_cpus.commit.op_class_0::FloatSqrt            0      0.00%     13.51% # Class of committed instruction
system.switch_cpus.commit.op_class_0::SimdAdd            0      0.00%     13.51% # Class of committed instruction
system.switch_cpus.commit.op_class_0::SimdAddAcc            0      0.00%     13.51% # Class of committed instruction
system.switch_cpus.commit.op_class_0::SimdAlu        47722      0.21%     13.72% # Class of committed instruction
system.switch_cpus.commit.op_class_0::SimdCmp            0      0.00%     13.72% # Class of committed instruction
system.switch_cpus.commit.op_class_0::SimdCvt            0      0.00%     13.72% # Class of committed instruction
system.switch_cpus.commit.op_class_0::SimdMisc            0      0.00%     13.72% # Class of committed instruction
system.switch_cpus.commit.op_class_0::SimdMult            0      0.00%     13.72% # Class of committed instruction
system.switch_cpus.commit.op_class_0::SimdMultAcc            0      0.00%     13.72% # Class of committed instruction
system.switch_cpus.commit.op_class_0::SimdShift            0      0.00%     13.72% # Class of committed instruction
system.switch_cpus.commit.op_class_0::SimdShiftAcc            0      0.00%     13.72% # Class of committed instruction
system.switch_cpus.commit.op_class_0::SimdDiv            0      0.00%     13.72% # Class of committed instruction
system.switch_cpus.commit.op_class_0::SimdSqrt            0      0.00%     13.72% # Class of committed instruction
system.switch_cpus.commit.op_class_0::SimdFloatAdd      5476750     24.37%     38.09% # Class of committed instruction
system.switch_cpus.commit.op_class_0::SimdFloatAlu            0      0.00%     38.09% # Class of committed instruction
system.switch_cpus.commit.op_class_0::SimdFloatCmp            0      0.00%     38.09% # Class of committed instruction
system.switch_cpus.commit.op_class_0::SimdFloatCvt            0      0.00%     38.09% # Class of committed instruction
system.switch_cpus.commit.op_class_0::SimdFloatDiv        11440      0.05%     38.14% # Class of committed instruction
system.switch_cpus.commit.op_class_0::SimdFloatMisc            0      0.00%     38.14% # Class of committed instruction
system.switch_cpus.commit.op_class_0::SimdFloatMult      4002198     17.81%     55.94% # Class of committed instruction
system.switch_cpus.commit.op_class_0::SimdFloatMultAcc            0      0.00%     55.94% # Class of committed instruction
system.switch_cpus.commit.op_class_0::SimdFloatSqrt            0      0.00%     55.94% # Class of committed instruction
system.switch_cpus.commit.op_class_0::SimdReduceAdd            0      0.00%     55.94% # Class of committed instruction
system.switch_cpus.commit.op_class_0::SimdReduceAlu            0      0.00%     55.94% # Class of committed instruction
system.switch_cpus.commit.op_class_0::SimdReduceCmp            0      0.00%     55.94% # Class of committed instruction
system.switch_cpus.commit.op_class_0::SimdFloatReduceAdd            0      0.00%     55.94% # Class of committed instruction
system.switch_cpus.commit.op_class_0::SimdFloatReduceCmp            0      0.00%     55.94% # Class of committed instruction
system.switch_cpus.commit.op_class_0::SimdAes            0      0.00%     55.94% # Class of committed instruction
system.switch_cpus.commit.op_class_0::SimdAesMix            0      0.00%     55.94% # Class of committed instruction
system.switch_cpus.commit.op_class_0::SimdSha1Hash            0      0.00%     55.94% # Class of committed instruction
system.switch_cpus.commit.op_class_0::SimdSha1Hash2            0      0.00%     55.94% # Class of committed instruction
system.switch_cpus.commit.op_class_0::SimdSha256Hash            0      0.00%     55.94% # Class of committed instruction
system.switch_cpus.commit.op_class_0::SimdSha256Hash2            0      0.00%     55.94% # Class of committed instruction
system.switch_cpus.commit.op_class_0::SimdShaSigma2            0      0.00%     55.94% # Class of committed instruction
system.switch_cpus.commit.op_class_0::SimdShaSigma3            0      0.00%     55.94% # Class of committed instruction
system.switch_cpus.commit.op_class_0::SimdPredAlu            0      0.00%     55.94% # Class of committed instruction
system.switch_cpus.commit.op_class_0::MemRead       657061      2.92%     58.87% # Class of committed instruction
system.switch_cpus.commit.op_class_0::MemWrite        55633      0.25%     59.11% # Class of committed instruction
system.switch_cpus.commit.op_class_0::FloatMemRead      6993998     31.12%     90.23% # Class of committed instruction
system.switch_cpus.commit.op_class_0::FloatMemWrite      2195966      9.77%    100.00% # Class of committed instruction
system.switch_cpus.commit.op_class_0::IprAccess            0      0.00%    100.00% # Class of committed instruction
system.switch_cpus.commit.op_class_0::InstPrefetch            0      0.00%    100.00% # Class of committed instruction
system.switch_cpus.commit.op_class_0::total     22477209                       # Class of committed instruction
system.switch_cpus.commit.refs                9902658                       # Number of memory references committed
system.switch_cpus.commit.swp_count                 0                       # Number of s/w prefetches committed
system.switch_cpus.commit.vec_insts                 0                       # Number of committed Vector instructions.
system.switch_cpus.committedInsts            10000003                       # Number of Instructions Simulated
system.switch_cpus.committedOps              22477209                       # Number of Ops (including micro ops) Simulated
system.switch_cpus.cpi                       1.481709                       # CPI: Cycles Per Instruction
system.switch_cpus.cpi_total                 1.481709                       # CPI: Total CPI of All Threads
system.switch_cpus.decode.BlockedCycles      10931165                       # Number of cycles decode is blocked
system.switch_cpus.decode.DecodedInsts       23108457                       # Number of instructions handled by decode
system.switch_cpus.decode.IdleCycles           745616                       # Number of cycles decode is idle
system.switch_cpus.decode.RunCycles           2485617                       # Number of cycles decode is running
system.switch_cpus.decode.SquashCycles           6092                       # Number of cycles decode is squashing
system.switch_cpus.decode.UnblockCycles        617275                       # Number of cycles decode is unblocking
system.switch_cpus.dtb.rdAccesses             7786209                       # TLB accesses on read requests
system.switch_cpus.dtb.rdMisses                  1499                       # TLB misses on read requests
system.switch_cpus.dtb.wrAccesses             2366975                       # TLB accesses on write requests
system.switch_cpus.dtb.wrMisses                   572                       # TLB misses on write requests
system.switch_cpus.fetch.Branches               45736                       # Number of branches that fetch encountered
system.switch_cpus.fetch.CacheLines           1084086                       # Number of cache lines fetched
system.switch_cpus.fetch.Cycles              13673430                       # Number of cycles fetch has run and was not squashing or blocked
system.switch_cpus.fetch.IcacheSquashes           119                       # Number of outstanding Icache misses that were squashed
system.switch_cpus.fetch.Insts               10473702                       # Number of instructions fetch has processed
system.switch_cpus.fetch.SquashCycles           12184                       # Number of cycles fetch has spent squashing
system.switch_cpus.fetch.branchRate          0.003087                       # Number of branch fetches per cycle
system.switch_cpus.fetch.icacheStallCycles      1106363                       # Number of cycles fetch is stalled on an Icache miss
system.switch_cpus.fetch.predictedBranches        33295                       # Number of branches that fetch has predicted taken
system.switch_cpus.fetch.rate                0.706866                       # Number of inst fetches per cycle
system.switch_cpus.fetch.rateDist::samples     14785885                       # Number of instructions fetched each cycle (Total)
system.switch_cpus.fetch.rateDist::mean      1.576166                       # Number of instructions fetched each cycle (Total)
system.switch_cpus.fetch.rateDist::stdev     3.030009                       # Number of instructions fetched each cycle (Total)
system.switch_cpus.fetch.rateDist::underflows            0      0.00%      0.00% # Number of instructions fetched each cycle (Total)
system.switch_cpus.fetch.rateDist::0         11307753     76.48%     76.48% # Number of instructions fetched each cycle (Total)
system.switch_cpus.fetch.rateDist::1           105493      0.71%     77.19% # Number of instructions fetched each cycle (Total)
system.switch_cpus.fetch.rateDist::2           214655      1.45%     78.64% # Number of instructions fetched each cycle (Total)
system.switch_cpus.fetch.rateDist::3           170010      1.15%     79.79% # Number of instructions fetched each cycle (Total)
system.switch_cpus.fetch.rateDist::4           177080      1.20%     80.99% # Number of instructions fetched each cycle (Total)
system.switch_cpus.fetch.rateDist::5           141096      0.95%     81.94% # Number of instructions fetched each cycle (Total)
system.switch_cpus.fetch.rateDist::6           219626      1.49%     83.43% # Number of instructions fetched each cycle (Total)
system.switch_cpus.fetch.rateDist::7            72755      0.49%     83.92% # Number of instructions fetched each cycle (Total)
system.switch_cpus.fetch.rateDist::8          2377417     16.08%    100.00% # Number of instructions fetched each cycle (Total)
system.switch_cpus.fetch.rateDist::overflows            0      0.00%    100.00% # Number of instructions fetched each cycle (Total)
system.switch_cpus.fetch.rateDist::min_value            0                       # Number of instructions fetched each cycle (Total)
system.switch_cpus.fetch.rateDist::max_value            8                       # Number of instructions fetched each cycle (Total)
system.switch_cpus.fetch.rateDist::total     14785885                       # Number of instructions fetched each cycle (Total)
system.switch_cpus.fp_regfile_reads          35988695                       # number of floating regfile reads
system.switch_cpus.fp_regfile_writes         19172085                       # number of floating regfile writes
system.switch_cpus.idleCycles                   31206                       # Total number of cycles that the CPU has spent unscheduled due to idling
system.switch_cpus.iew.branchMispredicts          840                       # Number of branch mispredicts detected at execute
system.switch_cpus.iew.exec_branches            37005                       # Number of branches executed
system.switch_cpus.iew.exec_nop                     0                       # number of nop insts executed
system.switch_cpus.iew.exec_rate             1.561205                       # Inst execution rate
system.switch_cpus.iew.exec_refs             10315047                       # number of memory reference insts executed
system.switch_cpus.iew.exec_stores            2366975                       # Number of stores executed
system.switch_cpus.iew.exec_swp                     0                       # number of swp insts executed
system.switch_cpus.iew.iewBlockCycles          303532                       # Number of cycles IEW is blocking
system.switch_cpus.iew.iewDispLoadInsts       7789734                       # Number of dispatched load instructions
system.switch_cpus.iew.iewDispNonSpecInsts            0                       # Number of dispatched non-speculative instructions
system.switch_cpus.iew.iewDispSquashedInsts            1                       # Number of squashed instructions skipped by dispatch
system.switch_cpus.iew.iewDispStoreInsts      2419006                       # Number of dispatched store instructions
system.switch_cpus.iew.iewDispatchedInsts     23042469                       # Number of instructions dispatched to IQ
system.switch_cpus.iew.iewExecLoadInsts       7948072                       # Number of load instructions executed
system.switch_cpus.iew.iewExecSquashedInsts         4684                       # Number of squashed instructions skipped in execute
system.switch_cpus.iew.iewExecutedInsts      23132515                       # Number of executed instructions
system.switch_cpus.iew.iewIQFullEvents           3097                       # Number of times the IQ has become full, causing a stall
system.switch_cpus.iew.iewIdleCycles                0                       # Number of cycles IEW is idle
system.switch_cpus.iew.iewLSQFullEvents       3606787                       # Number of times the LSQ has become full, causing a stall
system.switch_cpus.iew.iewSquashCycles           6092                       # Number of cycles IEW is squashing
system.switch_cpus.iew.iewUnblockCycles       3614890                       # Number of cycles IEW is unblocking
system.switch_cpus.iew.lsq.thread0.blockedLoads            0                       # Number of blocked loads due to partial load-store forwarding
system.switch_cpus.iew.lsq.thread0.cacheBlocked        31021                       # Number of times an access to memory failed due to the cache being blocked
system.switch_cpus.iew.lsq.thread0.forwLoads       573487                       # Number of loads that had data forwarded from stores
system.switch_cpus.iew.lsq.thread0.ignoredResponses           10                       # Number of memory responses ignored because the instruction is squashed
system.switch_cpus.iew.lsq.thread0.invAddrLoads            0                       # Number of loads ignored due to an invalid address
system.switch_cpus.iew.lsq.thread0.invAddrSwpfs            0                       # Number of software prefetches ignored due to an invalid address
system.switch_cpus.iew.lsq.thread0.memOrderViolation          250                       # Number of memory ordering violations
system.switch_cpus.iew.lsq.thread0.rescheduledLoads            0                       # Number of loads that were rescheduled
system.switch_cpus.iew.lsq.thread0.squashedLoads       138647                       # Number of loads squashed
system.switch_cpus.iew.lsq.thread0.squashedStores       167397                       # Number of stores squashed
system.switch_cpus.iew.memOrderViolationEvents          250                       # Number of memory order violations
system.switch_cpus.iew.predictedNotTakenIncorrect          149                       # Number of branches that were predicted not taken incorrectly
system.switch_cpus.iew.predictedTakenIncorrect          691                       # Number of branches that were predicted taken incorrectly
system.switch_cpus.iew.wb_consumers          28939117                       # num instructions consuming a value
system.switch_cpus.iew.wb_count              22918758                       # cumulative count of insts written-back
system.switch_cpus.iew.wb_fanout             0.605994                       # average fanout of values written-back
system.switch_cpus.iew.wb_producers          17536925                       # num instructions producing a value
system.switch_cpus.iew.wb_rate               1.546779                       # insts written-back per cycle
system.switch_cpus.iew.wb_sent               22961768                       # cumulative count of insts sent to commit
system.switch_cpus.int_regfile_reads         21303152                       # number of integer regfile reads
system.switch_cpus.int_regfile_writes         1345039                       # number of integer regfile writes
system.switch_cpus.ipc                       0.674897                       # IPC: Instructions Per Cycle
system.switch_cpus.ipc_total                 0.674897                       # IPC: Total IPC of All Threads
system.switch_cpus.iq.FU_type_0::No_OpClass        41140      0.18%      0.18% # Type of FU issued
system.switch_cpus.iq.FU_type_0::IntAlu       3237410     13.99%     14.17% # Type of FU issued
system.switch_cpus.iq.FU_type_0::IntMult          658      0.00%     14.17% # Type of FU issued
system.switch_cpus.iq.FU_type_0::IntDiv             0      0.00%     14.17% # Type of FU issued
system.switch_cpus.iq.FU_type_0::FloatAdd         2691      0.01%     14.18% # Type of FU issued
system.switch_cpus.iq.FU_type_0::FloatCmp            0      0.00%     14.18% # Type of FU issued
system.switch_cpus.iq.FU_type_0::FloatCvt            0      0.00%     14.18% # Type of FU issued
system.switch_cpus.iq.FU_type_0::FloatMult            0      0.00%     14.18% # Type of FU issued
system.switch_cpus.iq.FU_type_0::FloatMultAcc            0      0.00%     14.18% # Type of FU issued
system.switch_cpus.iq.FU_type_0::FloatDiv            0      0.00%     14.18% # Type of FU issued
system.switch_cpus.iq.FU_type_0::FloatMisc            0      0.00%     14.18% # Type of FU issued
system.switch_cpus.iq.FU_type_0::FloatSqrt            0      0.00%     14.18% # Type of FU issued
system.switch_cpus.iq.FU_type_0::SimdAdd            0      0.00%     14.18% # Type of FU issued
system.switch_cpus.iq.FU_type_0::SimdAddAcc            0      0.00%     14.18% # Type of FU issued
system.switch_cpus.iq.FU_type_0::SimdAlu        47746      0.21%     14.39% # Type of FU issued
system.switch_cpus.iq.FU_type_0::SimdCmp            0      0.00%     14.39% # Type of FU issued
system.switch_cpus.iq.FU_type_0::SimdCvt            0      0.00%     14.39% # Type of FU issued
system.switch_cpus.iq.FU_type_0::SimdMisc            0      0.00%     14.39% # Type of FU issued
system.switch_cpus.iq.FU_type_0::SimdMult            0      0.00%     14.39% # Type of FU issued
system.switch_cpus.iq.FU_type_0::SimdMultAcc            0      0.00%     14.39% # Type of FU issued
system.switch_cpus.iq.FU_type_0::SimdShift            0      0.00%     14.39% # Type of FU issued
system.switch_cpus.iq.FU_type_0::SimdShiftAcc            0      0.00%     14.39% # Type of FU issued
system.switch_cpus.iq.FU_type_0::SimdDiv            0      0.00%     14.39% # Type of FU issued
system.switch_cpus.iq.FU_type_0::SimdSqrt            0      0.00%     14.39% # Type of FU issued
system.switch_cpus.iq.FU_type_0::SimdFloatAdd      5476996     23.67%     38.06% # Type of FU issued
system.switch_cpus.iq.FU_type_0::SimdFloatAlu            0      0.00%     38.06% # Type of FU issued
system.switch_cpus.iq.FU_type_0::SimdFloatCmp            0      0.00%     38.06% # Type of FU issued
system.switch_cpus.iq.FU_type_0::SimdFloatCvt            0      0.00%     38.06% # Type of FU issued
system.switch_cpus.iq.FU_type_0::SimdFloatDiv        11440      0.05%     38.11% # Type of FU issued
system.switch_cpus.iq.FU_type_0::SimdFloatMisc            0      0.00%     38.11% # Type of FU issued
system.switch_cpus.iq.FU_type_0::SimdFloatMult      4002312     17.30%     55.41% # Type of FU issued
system.switch_cpus.iq.FU_type_0::SimdFloatMultAcc            0      0.00%     55.41% # Type of FU issued
system.switch_cpus.iq.FU_type_0::SimdFloatSqrt            0      0.00%     55.41% # Type of FU issued
system.switch_cpus.iq.FU_type_0::SimdReduceAdd            0      0.00%     55.41% # Type of FU issued
system.switch_cpus.iq.FU_type_0::SimdReduceAlu            0      0.00%     55.41% # Type of FU issued
system.switch_cpus.iq.FU_type_0::SimdReduceCmp            0      0.00%     55.41% # Type of FU issued
system.switch_cpus.iq.FU_type_0::SimdFloatReduceAdd            0      0.00%     55.41% # Type of FU issued
system.switch_cpus.iq.FU_type_0::SimdFloatReduceCmp            0      0.00%     55.41% # Type of FU issued
system.switch_cpus.iq.FU_type_0::SimdAes            0      0.00%     55.41% # Type of FU issued
system.switch_cpus.iq.FU_type_0::SimdAesMix            0      0.00%     55.41% # Type of FU issued
system.switch_cpus.iq.FU_type_0::SimdSha1Hash            0      0.00%     55.41% # Type of FU issued
system.switch_cpus.iq.FU_type_0::SimdSha1Hash2            0      0.00%     55.41% # Type of FU issued
system.switch_cpus.iq.FU_type_0::SimdSha256Hash            0      0.00%     55.41% # Type of FU issued
system.switch_cpus.iq.FU_type_0::SimdSha256Hash2            0      0.00%     55.41% # Type of FU issued
system.switch_cpus.iq.FU_type_0::SimdShaSigma2            0      0.00%     55.41% # Type of FU issued
system.switch_cpus.iq.FU_type_0::SimdShaSigma3            0      0.00%     55.41% # Type of FU issued
system.switch_cpus.iq.FU_type_0::SimdPredAlu            0      0.00%     55.41% # Type of FU issued
system.switch_cpus.iq.FU_type_0::MemRead       765684      3.31%     58.72% # Type of FU issued
system.switch_cpus.iq.FU_type_0::MemWrite        94624      0.41%     59.13% # Type of FU issued
system.switch_cpus.iq.FU_type_0::FloatMemRead      7183984     31.05%     90.18% # Type of FU issued
system.switch_cpus.iq.FU_type_0::FloatMemWrite      2272515      9.82%    100.00% # Type of FU issued
system.switch_cpus.iq.FU_type_0::IprAccess            0      0.00%    100.00% # Type of FU issued
system.switch_cpus.iq.FU_type_0::InstPrefetch            0      0.00%    100.00% # Type of FU issued
system.switch_cpus.iq.FU_type_0::total       23137200                       # Type of FU issued
system.switch_cpus.iq.fp_alu_accesses        22512910                       # Number of floating point alu accesses
system.switch_cpus.iq.fp_inst_queue_reads     44085280                       # Number of floating instruction queue reads
system.switch_cpus.iq.fp_inst_queue_wakeup_accesses     21442785                       # Number of floating instruction queue wakeup accesses
system.switch_cpus.iq.fp_inst_queue_writes     21671311                       # Number of floating instruction queue writes
system.switch_cpus.iq.fu_busy_cnt             1042814                       # FU busy when requested
system.switch_cpus.iq.fu_busy_rate           0.045071                       # FU busy rate (busy events/executed inst)
system.switch_cpus.iq.fu_full::No_OpClass            0      0.00%      0.00% # attempts to use FU when none available
system.switch_cpus.iq.fu_full::IntAlu             659      0.06%      0.06% # attempts to use FU when none available
system.switch_cpus.iq.fu_full::IntMult              0      0.00%      0.06% # attempts to use FU when none available
system.switch_cpus.iq.fu_full::IntDiv               0      0.00%      0.06% # attempts to use FU when none available
system.switch_cpus.iq.fu_full::FloatAdd             0      0.00%      0.06% # attempts to use FU when none available
system.switch_cpus.iq.fu_full::FloatCmp             0      0.00%      0.06% # attempts to use FU when none available
system.switch_cpus.iq.fu_full::FloatCvt             0      0.00%      0.06% # attempts to use FU when none available
system.switch_cpus.iq.fu_full::FloatMult            0      0.00%      0.06% # attempts to use FU when none available
system.switch_cpus.iq.fu_full::FloatMultAcc            0      0.00%      0.06% # attempts to use FU when none available
system.switch_cpus.iq.fu_full::FloatDiv             0      0.00%      0.06% # attempts to use FU when none available
system.switch_cpus.iq.fu_full::FloatMisc            0      0.00%      0.06% # attempts to use FU when none available
system.switch_cpus.iq.fu_full::FloatSqrt            0      0.00%      0.06% # attempts to use FU when none available
system.switch_cpus.iq.fu_full::SimdAdd              0      0.00%      0.06% # attempts to use FU when none available
system.switch_cpus.iq.fu_full::SimdAddAcc            0      0.00%      0.06% # attempts to use FU when none available
system.switch_cpus.iq.fu_full::SimdAlu              0      0.00%      0.06% # attempts to use FU when none available
system.switch_cpus.iq.fu_full::SimdCmp              0      0.00%      0.06% # attempts to use FU when none available
system.switch_cpus.iq.fu_full::SimdCvt              0      0.00%      0.06% # attempts to use FU when none available
system.switch_cpus.iq.fu_full::SimdMisc             0      0.00%      0.06% # attempts to use FU when none available
system.switch_cpus.iq.fu_full::SimdMult             0      0.00%      0.06% # attempts to use FU when none available
system.switch_cpus.iq.fu_full::SimdMultAcc            0      0.00%      0.06% # attempts to use FU when none available
system.switch_cpus.iq.fu_full::SimdShift            0      0.00%      0.06% # attempts to use FU when none available
system.switch_cpus.iq.fu_full::SimdShiftAcc            0      0.00%      0.06% # attempts to use FU when none available
system.switch_cpus.iq.fu_full::SimdDiv              0      0.00%      0.06% # attempts to use FU when none available
system.switch_cpus.iq.fu_full::SimdSqrt             0      0.00%      0.06% # attempts to use FU when none available
system.switch_cpus.iq.fu_full::SimdFloatAdd       123063     11.80%     11.86% # attempts to use FU when none available
system.switch_cpus.iq.fu_full::SimdFloatAlu            0      0.00%     11.86% # attempts to use FU when none available
system.switch_cpus.iq.fu_full::SimdFloatCmp            0      0.00%     11.86% # attempts to use FU when none available
system.switch_cpus.iq.fu_full::SimdFloatCvt            0      0.00%     11.86% # attempts to use FU when none available
system.switch_cpus.iq.fu_full::SimdFloatDiv            0      0.00%     11.86% # attempts to use FU when none available
system.switch_cpus.iq.fu_full::SimdFloatMisc            0      0.00%     11.86% # attempts to use FU when none available
system.switch_cpus.iq.fu_full::SimdFloatMult       263200     25.24%     37.10% # attempts to use FU when none available
system.switch_cpus.iq.fu_full::SimdFloatMultAcc            0      0.00%     37.10% # attempts to use FU when none available
system.switch_cpus.iq.fu_full::SimdFloatSqrt            0      0.00%     37.10% # attempts to use FU when none available
system.switch_cpus.iq.fu_full::SimdReduceAdd            0      0.00%     37.10% # attempts to use FU when none available
system.switch_cpus.iq.fu_full::SimdReduceAlu            0      0.00%     37.10% # attempts to use FU when none available
system.switch_cpus.iq.fu_full::SimdReduceCmp            0      0.00%     37.10% # attempts to use FU when none available
system.switch_cpus.iq.fu_full::SimdFloatReduceAdd            0      0.00%     37.10% # attempts to use FU when none available
system.switch_cpus.iq.fu_full::SimdFloatReduceCmp            0      0.00%     37.10% # attempts to use FU when none available
system.switch_cpus.iq.fu_full::SimdAes              0      0.00%     37.10% # attempts to use FU when none available
system.switch_cpus.iq.fu_full::SimdAesMix            0      0.00%     37.10% # attempts to use FU when none available
system.switch_cpus.iq.fu_full::SimdSha1Hash            0      0.00%     37.10% # attempts to use FU when none available
system.switch_cpus.iq.fu_full::SimdSha1Hash2            0      0.00%     37.10% # attempts to use FU when none available
system.switch_cpus.iq.fu_full::SimdSha256Hash            0      0.00%     37.10% # attempts to use FU when none available
system.switch_cpus.iq.fu_full::SimdSha256Hash2            0      0.00%     37.10% # attempts to use FU when none available
system.switch_cpus.iq.fu_full::SimdShaSigma2            0      0.00%     37.10% # attempts to use FU when none available
system.switch_cpus.iq.fu_full::SimdShaSigma3            0      0.00%     37.10% # attempts to use FU when none available
system.switch_cpus.iq.fu_full::SimdPredAlu            0      0.00%     37.10% # attempts to use FU when none available
system.switch_cpus.iq.fu_full::MemRead          89743      8.61%     45.71% # attempts to use FU when none available
system.switch_cpus.iq.fu_full::MemWrite         11470      1.10%     46.81% # attempts to use FU when none available
system.switch_cpus.iq.fu_full::FloatMemRead       498156     47.77%     94.58% # attempts to use FU when none available
system.switch_cpus.iq.fu_full::FloatMemWrite        56523      5.42%    100.00% # attempts to use FU when none available
system.switch_cpus.iq.fu_full::IprAccess            0      0.00%    100.00% # attempts to use FU when none available
system.switch_cpus.iq.fu_full::InstPrefetch            0      0.00%    100.00% # attempts to use FU when none available
system.switch_cpus.iq.int_alu_accesses        1625964                       # Number of integer alu accesses
system.switch_cpus.iq.int_inst_queue_reads     18018334                       # Number of integer instruction queue reads
system.switch_cpus.iq.int_inst_queue_wakeup_accesses      1475973                       # Number of integer instruction queue wakeup accesses
system.switch_cpus.iq.int_inst_queue_writes      1936588                       # Number of integer instruction queue writes
system.switch_cpus.iq.iqInstsAdded           23038610                       # Number of instructions added to the IQ (excludes non-spec)
system.switch_cpus.iq.iqInstsIssued          23137200                       # Number of instructions issued
system.switch_cpus.iq.iqNonSpecInstsAdded         3859                       # Number of non-speculative instructions added to the IQ
system.switch_cpus.iq.iqSquashedInstsExamined       565180                       # Number of squashed instructions iterated over during squash; mainly for profiling
system.switch_cpus.iq.iqSquashedInstsIssued          516                       # Number of squashed instructions issued
system.switch_cpus.iq.iqSquashedNonSpecRemoved         3539                       # Number of squashed non-spec instructions that were removed
system.switch_cpus.iq.iqSquashedOperandsExamined       278621                       # Number of squashed operands that are examined and possibly removed from graph
system.switch_cpus.iq.issued_per_cycle::samples     14785885                       # Number of insts issued each cycle
system.switch_cpus.iq.issued_per_cycle::mean     1.564817                       # Number of insts issued each cycle
system.switch_cpus.iq.issued_per_cycle::stdev     2.447116                       # Number of insts issued each cycle
system.switch_cpus.iq.issued_per_cycle::underflows            0      0.00%      0.00% # Number of insts issued each cycle
system.switch_cpus.iq.issued_per_cycle::0      9396283     63.55%     63.55% # Number of insts issued each cycle
system.switch_cpus.iq.issued_per_cycle::1       691870      4.68%     68.23% # Number of insts issued each cycle
system.switch_cpus.iq.issued_per_cycle::2       707745      4.79%     73.01% # Number of insts issued each cycle
system.switch_cpus.iq.issued_per_cycle::3       637543      4.31%     77.33% # Number of insts issued each cycle
system.switch_cpus.iq.issued_per_cycle::4       890685      6.02%     83.35% # Number of insts issued each cycle
system.switch_cpus.iq.issued_per_cycle::5       705039      4.77%     88.12% # Number of insts issued each cycle
system.switch_cpus.iq.issued_per_cycle::6       774214      5.24%     93.36% # Number of insts issued each cycle
system.switch_cpus.iq.issued_per_cycle::7       476056      3.22%     96.57% # Number of insts issued each cycle
system.switch_cpus.iq.issued_per_cycle::8       506450      3.43%    100.00% # Number of insts issued each cycle
system.switch_cpus.iq.issued_per_cycle::overflows            0      0.00%    100.00% # Number of insts issued each cycle
system.switch_cpus.iq.issued_per_cycle::min_value            0                       # Number of insts issued each cycle
system.switch_cpus.iq.issued_per_cycle::max_value            8                       # Number of insts issued each cycle
system.switch_cpus.iq.issued_per_cycle::total     14785885                       # Number of insts issued each cycle
system.switch_cpus.iq.rate                   1.561521                       # Inst issue rate
system.switch_cpus.iq.vec_alu_accesses              0                       # Number of vector alu accesses
system.switch_cpus.iq.vec_inst_queue_reads            0                       # Number of vector instruction queue reads
system.switch_cpus.iq.vec_inst_queue_wakeup_accesses            0                       # Number of vector instruction queue wakeup accesses
system.switch_cpus.iq.vec_inst_queue_writes            0                       # Number of vector instruction queue writes
system.switch_cpus.itb.rdAccesses                   0                       # TLB accesses on read requests
system.switch_cpus.itb.rdMisses                     0                       # TLB misses on read requests
system.switch_cpus.itb.wrAccesses             1084086                       # TLB accesses on write requests
system.switch_cpus.itb.wrMisses                    10                       # TLB misses on write requests
system.switch_cpus.memDep0.conflictingLoads        22747                       # Number of conflicting loads.
system.switch_cpus.memDep0.conflictingStores        95665                       # Number of conflicting stores.
system.switch_cpus.memDep0.insertedLoads      7789734                       # Number of loads inserted to the mem dependence unit.
system.switch_cpus.memDep0.insertedStores      2419006                       # Number of stores inserted to the mem dependence unit.
system.switch_cpus.misc_regfile_reads        10622778                       # number of misc regfile reads
system.switch_cpus.misc_regfile_writes              1                       # number of misc regfile writes
system.switch_cpus.numCycles                 14817091                       # number of cpu cycles simulated
system.switch_cpus.numWorkItemsCompleted            0                       # number of work items this cpu completed
system.switch_cpus.numWorkItemsStarted              0                       # number of work items this cpu started
system.switch_cpus.rename.BlockCycles         3977697                       # Number of cycles rename is blocking
system.switch_cpus.rename.CommittedMaps      20390800                       # Number of HB maps that are committed
system.switch_cpus.rename.IQFullEvents         168508                       # Number of times rename has blocked due to IQ full
system.switch_cpus.rename.IdleCycles          1026268                       # Number of cycles rename is idle
system.switch_cpus.rename.LQFullEvents        2446798                       # Number of times rename has blocked due to LQ full
system.switch_cpus.rename.ROBFullEvents         14283                       # Number of times rename has blocked due to ROB full
system.switch_cpus.rename.RenameLookups      67938292                       # Number of register rename lookups that rename has made
system.switch_cpus.rename.RenamedInsts       23064737                       # Number of instructions processed by rename
system.switch_cpus.rename.RenamedOperands     20906348                       # Number of destination operands rename has renamed
system.switch_cpus.rename.RunCycles           2813995                       # Number of cycles rename is running
system.switch_cpus.rename.SQFullEvents        4293997                       # Number of times rename has blocked due to SQ full
system.switch_cpus.rename.SquashCycles           6092                       # Number of cycles rename is squashing
system.switch_cpus.rename.UnblockCycles       6961713                       # Number of cycles rename is unblocking
system.switch_cpus.rename.UndoneMaps           515468                       # Number of HB maps that are undone due to squashing
system.switch_cpus.rename.fp_rename_lookups     36040532                       # Number of floating rename lookups
system.switch_cpus.rename.int_rename_lookups     21168322                       # Number of integer rename lookups
system.switch_cpus.rename.serializeStallCycles            0                       # count of cycles rename stalled for serializing inst
system.switch_cpus.rename.serializingInsts            0                       # count of serializing insts renamed
system.switch_cpus.rename.skidInsts           3786023                       # count of insts added to the skid buffer
system.switch_cpus.rename.tempSerializingInsts            0                       # count of temporary serializing insts renamed
system.switch_cpus.rob.rob_reads             36044268                       # The number of ROB reads
system.switch_cpus.rob.rob_writes            45954350                       # The number of ROB writes
system.switch_cpus.timesIdled                     343                       # Number of times that the entire CPU went into an idle state and unscheduled itself
system.tol2bus.snoop_filter.hit_multi_requests            0                       # Number of requests hitting in the snoop filter with multiple (>1) holders of the requested data.
system.tol2bus.snoop_filter.hit_multi_snoops            0                       # Number of snoops hitting in the snoop filter with multiple (>1) holders of the requested data.
system.tol2bus.snoop_filter.hit_single_requests       113430                       # Number of requests hitting in the snoop filter with a single holder of the requested data.
system.tol2bus.snoop_filter.hit_single_snoops          490                       # Number of snoops hitting in the snoop filter with a single holder of the requested data.
system.tol2bus.snoop_filter.tot_requests       228164                       # Total number of requests made to the snoop filter.
system.tol2bus.snoop_filter.tot_snoops            490                       # Total number of snoops made to the snoop filter.
system.membus.pwrStateResidencyTicks::UNDEFINED 572574721809500                       # Cumulative time (in ticks) in various power states
system.membus.trans_dist::ReadResp              61672                       # Transaction distribution
system.membus.trans_dist::WritebackDirty        26846                       # Transaction distribution
system.membus.trans_dist::CleanEvict            48824                       # Transaction distribution
system.membus.trans_dist::ReadExReq             22470                       # Transaction distribution
system.membus.trans_dist::ReadExResp            22470                       # Transaction distribution
system.membus.trans_dist::ReadSharedReq         61672                       # Transaction distribution
system.membus.pkt_count_system.l2.mem_side::system.mem_ctrls.port       243954                       # Packet count per connected master and slave (bytes)
system.membus.pkt_count_system.l2.mem_side::total       243954                       # Packet count per connected master and slave (bytes)
system.membus.pkt_count::total                 243954                       # Packet count per connected master and slave (bytes)
system.membus.pkt_size_system.l2.mem_side::system.mem_ctrls.port      7103232                       # Cumulative packet size per connected master and slave (bytes)
system.membus.pkt_size_system.l2.mem_side::total      7103232                       # Cumulative packet size per connected master and slave (bytes)
system.membus.pkt_size::total                 7103232                       # Cumulative packet size per connected master and slave (bytes)
system.membus.snoops                                0                       # Total snoops (count)
system.membus.snoopTraffic                          0                       # Total snoop traffic (bytes)
system.membus.snoop_fanout::samples             84142                       # Request fanout histogram
system.membus.snoop_fanout::mean                    0                       # Request fanout histogram
system.membus.snoop_fanout::stdev                   0                       # Request fanout histogram
system.membus.snoop_fanout::underflows              0      0.00%      0.00% # Request fanout histogram
system.membus.snoop_fanout::0                   84142    100.00%    100.00% # Request fanout histogram
system.membus.snoop_fanout::1                       0      0.00%    100.00% # Request fanout histogram
system.membus.snoop_fanout::overflows               0      0.00%    100.00% # Request fanout histogram
system.membus.snoop_fanout::min_value               0                       # Request fanout histogram
system.membus.snoop_fanout::max_value               0                       # Request fanout histogram
system.membus.snoop_fanout::total               84142                       # Request fanout histogram
system.membus.reqLayer2.occupancy           281856500                       # Layer occupancy (ticks)
system.membus.reqLayer2.utilization               3.8                       # Layer utilization (%)
system.membus.respLayer1.occupancy          466554000                       # Layer occupancy (ticks)
system.membus.respLayer1.utilization              6.3                       # Layer utilization (%)
system.switch_cpus.pwrStateResidencyTicks::OFF   7408555750                       # Cumulative time (in ticks) in various power states
system.switch_cpus.dtb.walker.pwrStateResidencyTicks::UNDEFINED 572574721809500                       # Cumulative time (in ticks) in various power states
system.switch_cpus.itb.walker.pwrStateResidencyTicks::UNDEFINED 572574721809500                       # Cumulative time (in ticks) in various power states
system.tol2bus.pwrStateResidencyTicks::UNDEFINED 572574721809500                       # Cumulative time (in ticks) in various power states
system.tol2bus.trans_dist::ReadResp             83068                       # Transaction distribution
system.tol2bus.trans_dist::WritebackDirty        68846                       # Transaction distribution
system.tol2bus.trans_dist::WritebackClean          116                       # Transaction distribution
system.tol2bus.trans_dist::CleanEvict          120619                       # Transaction distribution
system.tol2bus.trans_dist::ReadExReq            31666                       # Transaction distribution
system.tol2bus.trans_dist::ReadExResp           31666                       # Transaction distribution
system.tol2bus.trans_dist::ReadCleanReq           396                       # Transaction distribution
system.tol2bus.trans_dist::ReadSharedReq        82672                       # Transaction distribution
system.tol2bus.pkt_count_system.cpu.icache.mem_side::system.l2.cpu_side          908                       # Packet count per connected master and slave (bytes)
system.tol2bus.pkt_count_system.cpu.dcache.mem_side::system.l2.cpu_side       341990                       # Packet count per connected master and slave (bytes)
system.tol2bus.pkt_count::total                342898                       # Packet count per connected master and slave (bytes)
system.tol2bus.pkt_size_system.cpu.icache.mem_side::system.l2.cpu_side        32768                       # Cumulative packet size per connected master and slave (bytes)
system.tol2bus.pkt_size_system.cpu.dcache.mem_side::system.l2.cpu_side     10005632                       # Cumulative packet size per connected master and slave (bytes)
system.tol2bus.pkt_size::total               10038400                       # Cumulative packet size per connected master and slave (bytes)
system.tol2bus.snoops                           76151                       # Total snoops (count)
system.tol2bus.snoopTraffic                   1718144                       # Total snoop traffic (bytes)
system.tol2bus.snoop_fanout::samples           190885                       # Request fanout histogram
system.tol2bus.snoop_fanout::mean            0.002567                       # Request fanout histogram
system.tol2bus.snoop_fanout::stdev           0.050601                       # Request fanout histogram
system.tol2bus.snoop_fanout::underflows             0      0.00%      0.00% # Request fanout histogram
system.tol2bus.snoop_fanout::0                 190395     99.74%     99.74% # Request fanout histogram
system.tol2bus.snoop_fanout::1                    490      0.26%    100.00% # Request fanout histogram
system.tol2bus.snoop_fanout::2                      0      0.00%    100.00% # Request fanout histogram
system.tol2bus.snoop_fanout::3                      0      0.00%    100.00% # Request fanout histogram
system.tol2bus.snoop_fanout::4                      0      0.00%    100.00% # Request fanout histogram
system.tol2bus.snoop_fanout::overflows              0      0.00%    100.00% # Request fanout histogram
system.tol2bus.snoop_fanout::min_value              0                       # Request fanout histogram
system.tol2bus.snoop_fanout::max_value              1                       # Request fanout histogram
system.tol2bus.snoop_fanout::total             190885                       # Request fanout histogram
system.tol2bus.reqLayer0.occupancy          156195500                       # Layer occupancy (ticks)
system.tol2bus.reqLayer0.utilization              2.1                       # Layer utilization (%)
system.tol2bus.respLayer1.occupancy         171502500                       # Layer occupancy (ticks)
system.tol2bus.respLayer1.utilization             2.3                       # Layer utilization (%)
system.tol2bus.respLayer0.occupancy            591000                       # Layer occupancy (ticks)
system.tol2bus.respLayer0.utilization             0.0                       # Layer utilization (%)
system.voltage_domain.voltage                       1                       # Voltage in Volts
system.clk_domain.clock                          1000                       # Clock period in ticks
system.l2.pwrStateResidencyTicks::UNDEFINED 572574721809500                       # Cumulative time (in ticks) in various power states
system.l2.demand_hits::.switch_cpus.inst           68                       # number of demand (read+write) hits
system.l2.demand_hits::.switch_cpus.data        30524                       # number of demand (read+write) hits
system.l2.demand_hits::total                    30592                       # number of demand (read+write) hits
system.l2.overall_hits::.switch_cpus.inst           68                       # number of overall hits
system.l2.overall_hits::.switch_cpus.data        30524                       # number of overall hits
system.l2.overall_hits::total                   30592                       # number of overall hits
system.l2.demand_misses::.cpu.inst                  2                       # number of demand (read+write) misses
system.l2.demand_misses::.cpu.data                  3                       # number of demand (read+write) misses
system.l2.demand_misses::.switch_cpus.inst          326                       # number of demand (read+write) misses
system.l2.demand_misses::.switch_cpus.data        83811                       # number of demand (read+write) misses
system.l2.demand_misses::total                  84142                       # number of demand (read+write) misses
system.l2.overall_misses::.cpu.inst                 2                       # number of overall misses
system.l2.overall_misses::.cpu.data                 3                       # number of overall misses
system.l2.overall_misses::.switch_cpus.inst          326                       # number of overall misses
system.l2.overall_misses::.switch_cpus.data        83811                       # number of overall misses
system.l2.overall_misses::total                 84142                       # number of overall misses
system.l2.demand_miss_latency::.switch_cpus.inst     24844000                       # number of demand (read+write) miss cycles
system.l2.demand_miss_latency::.switch_cpus.data   8549797000                       # number of demand (read+write) miss cycles
system.l2.demand_miss_latency::total       8574641000                       # number of demand (read+write) miss cycles
system.l2.overall_miss_latency::.switch_cpus.inst     24844000                       # number of overall miss cycles
system.l2.overall_miss_latency::.switch_cpus.data   8549797000                       # number of overall miss cycles
system.l2.overall_miss_latency::total      8574641000                       # number of overall miss cycles
system.l2.demand_accesses::.cpu.inst                2                       # number of demand (read+write) accesses
system.l2.demand_accesses::.cpu.data                3                       # number of demand (read+write) accesses
system.l2.demand_accesses::.switch_cpus.inst          394                       # number of demand (read+write) accesses
system.l2.demand_accesses::.switch_cpus.data       114335                       # number of demand (read+write) accesses
system.l2.demand_accesses::total               114734                       # number of demand (read+write) accesses
system.l2.overall_accesses::.cpu.inst               2                       # number of overall (read+write) accesses
system.l2.overall_accesses::.cpu.data               3                       # number of overall (read+write) accesses
system.l2.overall_accesses::.switch_cpus.inst          394                       # number of overall (read+write) accesses
system.l2.overall_accesses::.switch_cpus.data       114335                       # number of overall (read+write) accesses
system.l2.overall_accesses::total              114734                       # number of overall (read+write) accesses
system.l2.demand_miss_rate::.cpu.inst               1                       # miss rate for demand accesses
system.l2.demand_miss_rate::.cpu.data               1                       # miss rate for demand accesses
system.l2.demand_miss_rate::.switch_cpus.inst     0.827411                       # miss rate for demand accesses
system.l2.demand_miss_rate::.switch_cpus.data     0.733030                       # miss rate for demand accesses
system.l2.demand_miss_rate::total            0.733366                       # miss rate for demand accesses
system.l2.overall_miss_rate::.cpu.inst              1                       # miss rate for overall accesses
system.l2.overall_miss_rate::.cpu.data              1                       # miss rate for overall accesses
system.l2.overall_miss_rate::.switch_cpus.inst     0.827411                       # miss rate for overall accesses
system.l2.overall_miss_rate::.switch_cpus.data     0.733030                       # miss rate for overall accesses
system.l2.overall_miss_rate::total           0.733366                       # miss rate for overall accesses
system.l2.demand_avg_miss_latency::.switch_cpus.inst 76208.588957                       # average overall miss latency
system.l2.demand_avg_miss_latency::.switch_cpus.data 102012.826479                       # average overall miss latency
system.l2.demand_avg_miss_latency::total 101906.788524                       # average overall miss latency
system.l2.overall_avg_miss_latency::.switch_cpus.inst 76208.588957                       # average overall miss latency
system.l2.overall_avg_miss_latency::.switch_cpus.data 102012.826479                       # average overall miss latency
system.l2.overall_avg_miss_latency::total 101906.788524                       # average overall miss latency
system.l2.blocked_cycles::no_mshrs                  0                       # number of cycles access was blocked
system.l2.blocked_cycles::no_targets                0                       # number of cycles access was blocked
system.l2.blocked::no_mshrs                         0                       # number of cycles access was blocked
system.l2.blocked::no_targets                       0                       # number of cycles access was blocked
system.l2.avg_blocked_cycles::no_mshrs            nan                       # average number of cycles each access was blocked
system.l2.avg_blocked_cycles::no_targets          nan                       # average number of cycles each access was blocked
system.l2.writebacks::.writebacks               26846                       # number of writebacks
system.l2.writebacks::total                     26846                       # number of writebacks
system.l2.demand_mshr_misses::.switch_cpus.inst          326                       # number of demand (read+write) MSHR misses
system.l2.demand_mshr_misses::.switch_cpus.data        83811                       # number of demand (read+write) MSHR misses
system.l2.demand_mshr_misses::total             84137                       # number of demand (read+write) MSHR misses
system.l2.overall_mshr_misses::.switch_cpus.inst          326                       # number of overall MSHR misses
system.l2.overall_mshr_misses::.switch_cpus.data        83811                       # number of overall MSHR misses
system.l2.overall_mshr_misses::total            84137                       # number of overall MSHR misses
system.l2.demand_mshr_miss_latency::.switch_cpus.inst     21584000                       # number of demand (read+write) MSHR miss cycles
system.l2.demand_mshr_miss_latency::.switch_cpus.data   7711687000                       # number of demand (read+write) MSHR miss cycles
system.l2.demand_mshr_miss_latency::total   7733271000                       # number of demand (read+write) MSHR miss cycles
system.l2.overall_mshr_miss_latency::.switch_cpus.inst     21584000                       # number of overall MSHR miss cycles
system.l2.overall_mshr_miss_latency::.switch_cpus.data   7711687000                       # number of overall MSHR miss cycles
system.l2.overall_mshr_miss_latency::total   7733271000                       # number of overall MSHR miss cycles
system.l2.demand_mshr_miss_rate::.switch_cpus.inst     0.827411                       # mshr miss rate for demand accesses
system.l2.demand_mshr_miss_rate::.switch_cpus.data     0.733030                       # mshr miss rate for demand accesses
system.l2.demand_mshr_miss_rate::total       0.733322                       # mshr miss rate for demand accesses
system.l2.overall_mshr_miss_rate::.switch_cpus.inst     0.827411                       # mshr miss rate for overall accesses
system.l2.overall_mshr_miss_rate::.switch_cpus.data     0.733030                       # mshr miss rate for overall accesses
system.l2.overall_mshr_miss_rate::total      0.733322                       # mshr miss rate for overall accesses
system.l2.demand_avg_mshr_miss_latency::.switch_cpus.inst 66208.588957                       # average overall mshr miss latency
system.l2.demand_avg_mshr_miss_latency::.switch_cpus.data 92012.826479                       # average overall mshr miss latency
system.l2.demand_avg_mshr_miss_latency::total 91912.844527                       # average overall mshr miss latency
system.l2.overall_avg_mshr_miss_latency::.switch_cpus.inst 66208.588957                       # average overall mshr miss latency
system.l2.overall_avg_mshr_miss_latency::.switch_cpus.data 92012.826479                       # average overall mshr miss latency
system.l2.overall_avg_mshr_miss_latency::total 91912.844527                       # average overall mshr miss latency
system.l2.replacements                          76151                       # number of replacements
system.l2.WritebackDirty_hits::.writebacks        42000                       # number of WritebackDirty hits
system.l2.WritebackDirty_hits::total            42000                       # number of WritebackDirty hits
system.l2.WritebackDirty_accesses::.writebacks        42000                       # number of WritebackDirty accesses(hits+misses)
system.l2.WritebackDirty_accesses::total        42000                       # number of WritebackDirty accesses(hits+misses)
system.l2.WritebackClean_hits::.writebacks          116                       # number of WritebackClean hits
system.l2.WritebackClean_hits::total              116                       # number of WritebackClean hits
system.l2.WritebackClean_accesses::.writebacks          116                       # number of WritebackClean accesses(hits+misses)
system.l2.WritebackClean_accesses::total          116                       # number of WritebackClean accesses(hits+misses)
system.l2.CleanEvict_mshr_misses::.writebacks            9                       # number of CleanEvict MSHR misses
system.l2.CleanEvict_mshr_misses::total             9                       # number of CleanEvict MSHR misses
system.l2.CleanEvict_mshr_miss_rate::.writebacks          inf                       # mshr miss rate for CleanEvict accesses
system.l2.CleanEvict_mshr_miss_rate::total          inf                       # mshr miss rate for CleanEvict accesses
system.l2.ReadExReq_hits::.switch_cpus.data         9196                       # number of ReadExReq hits
system.l2.ReadExReq_hits::total                  9196                       # number of ReadExReq hits
system.l2.ReadExReq_misses::.cpu.data               1                       # number of ReadExReq misses
system.l2.ReadExReq_misses::.switch_cpus.data        22469                       # number of ReadExReq misses
system.l2.ReadExReq_misses::total               22470                       # number of ReadExReq misses
system.l2.ReadExReq_miss_latency::.switch_cpus.data   2226356000                       # number of ReadExReq miss cycles
system.l2.ReadExReq_miss_latency::total    2226356000                       # number of ReadExReq miss cycles
system.l2.ReadExReq_accesses::.cpu.data             1                       # number of ReadExReq accesses(hits+misses)
system.l2.ReadExReq_accesses::.switch_cpus.data        31665                       # number of ReadExReq accesses(hits+misses)
system.l2.ReadExReq_accesses::total             31666                       # number of ReadExReq accesses(hits+misses)
system.l2.ReadExReq_miss_rate::.cpu.data            1                       # miss rate for ReadExReq accesses
system.l2.ReadExReq_miss_rate::.switch_cpus.data     0.709585                       # miss rate for ReadExReq accesses
system.l2.ReadExReq_miss_rate::total         0.709594                       # miss rate for ReadExReq accesses
system.l2.ReadExReq_avg_miss_latency::.switch_cpus.data 99085.673595                       # average ReadExReq miss latency
system.l2.ReadExReq_avg_miss_latency::total 99081.263907                       # average ReadExReq miss latency
system.l2.ReadExReq_mshr_misses::.switch_cpus.data        22469                       # number of ReadExReq MSHR misses
system.l2.ReadExReq_mshr_misses::total          22469                       # number of ReadExReq MSHR misses
system.l2.ReadExReq_mshr_miss_latency::.switch_cpus.data   2001666000                       # number of ReadExReq MSHR miss cycles
system.l2.ReadExReq_mshr_miss_latency::total   2001666000                       # number of ReadExReq MSHR miss cycles
system.l2.ReadExReq_mshr_miss_rate::.switch_cpus.data     0.709585                       # mshr miss rate for ReadExReq accesses
system.l2.ReadExReq_mshr_miss_rate::total     0.709562                       # mshr miss rate for ReadExReq accesses
system.l2.ReadExReq_avg_mshr_miss_latency::.switch_cpus.data 89085.673595                       # average ReadExReq mshr miss latency
system.l2.ReadExReq_avg_mshr_miss_latency::total 89085.673595                       # average ReadExReq mshr miss latency
system.l2.ReadCleanReq_hits::.switch_cpus.inst           68                       # number of ReadCleanReq hits
system.l2.ReadCleanReq_hits::total                 68                       # number of ReadCleanReq hits
system.l2.ReadCleanReq_misses::.cpu.inst            2                       # number of ReadCleanReq misses
system.l2.ReadCleanReq_misses::.switch_cpus.inst          326                       # number of ReadCleanReq misses
system.l2.ReadCleanReq_misses::total              328                       # number of ReadCleanReq misses
system.l2.ReadCleanReq_miss_latency::.switch_cpus.inst     24844000                       # number of ReadCleanReq miss cycles
system.l2.ReadCleanReq_miss_latency::total     24844000                       # number of ReadCleanReq miss cycles
system.l2.ReadCleanReq_accesses::.cpu.inst            2                       # number of ReadCleanReq accesses(hits+misses)
system.l2.ReadCleanReq_accesses::.switch_cpus.inst          394                       # number of ReadCleanReq accesses(hits+misses)
system.l2.ReadCleanReq_accesses::total            396                       # number of ReadCleanReq accesses(hits+misses)
system.l2.ReadCleanReq_miss_rate::.cpu.inst            1                       # miss rate for ReadCleanReq accesses
system.l2.ReadCleanReq_miss_rate::.switch_cpus.inst     0.827411                       # miss rate for ReadCleanReq accesses
system.l2.ReadCleanReq_miss_rate::total      0.828283                       # miss rate for ReadCleanReq accesses
system.l2.ReadCleanReq_avg_miss_latency::.switch_cpus.inst 76208.588957                       # average ReadCleanReq miss latency
system.l2.ReadCleanReq_avg_miss_latency::total 75743.902439                       # average ReadCleanReq miss latency
[...]
system.cpu.dtb_walker_cache.pwrStateResidencyTicks::UNDEFINED 572596937864000                       # Cumulative time (in ticks) in various power states
system.cpu.dtb_walker_cache.blocked_cycles::no_mshrs            0                       # number of cycles access was blocked
system.cpu.dtb_walker_cache.blocked_cycles::no_targets            0                       # number of cycles access was blocked
system.cpu.dtb_walker_cache.blocked::no_mshrs            0                       # number of cycles access was blocked
system.cpu.dtb_walker_cache.blocked::no_targets            0                       # number of cycles access was blocked
system.cpu.dtb_walker_cache.avg_blocked_cycles::no_mshrs          nan                       # average number of cycles each access was blocked
system.cpu.dtb_walker_cache.avg_blocked_cycles::no_targets          nan                       # average number of cycles each access was blocked
system.cpu.dtb_walker_cache.replacements            0                       # number of replacements
system.cpu.dtb_walker_cache.tags.pwrStateResidencyTicks::UNDEFINED 572596937864000                       # Cumulative time (in ticks) in various power states
system.cpu.dtb_walker_cache.tags.tagsinuse            0                       # Cycle average of tags in use
system.cpu.dtb_walker_cache.tags.total_refs            0                       # Total number of references to valid blocks.
system.cpu.dtb_walker_cache.tags.sampled_refs            0                       # Sample count of references to valid blocks.
system.cpu.dtb_walker_cache.tags.avg_refs          nan                       # Average number of references to valid blocks.
system.cpu.dtb_walker_cache.tags.warmup_cycle            0                       # Cycle when the warmup percentage was hit.
system.cpu.dtb_walker_cache.tags.tag_accesses            0                       # Number of tag accesses
system.cpu.dtb_walker_cache.tags.data_accesses            0                       # Number of data accesses
system.cpu.dcache.pwrStateResidencyTicks::UNDEFINED 572596937864000                       # Cumulative time (in ticks) in various power states
system.cpu.dcache.demand_hits::.cpu.data            3                       # number of demand (read+write) hits
system.cpu.dcache.demand_hits::.switch_cpus.data     35463826                       # number of demand (read+write) hits
system.cpu.dcache.demand_hits::total         35463829                       # number of demand (read+write) hits
system.cpu.dcache.overall_hits::.cpu.data            3                       # number of overall hits
system.cpu.dcache.overall_hits::.switch_cpus.data     35518753                       # number of overall hits
system.cpu.dcache.overall_hits::total        35518756                       # number of overall hits
system.cpu.dcache.demand_misses::.cpu.data            3                       # number of demand (read+write) misses
system.cpu.dcache.demand_misses::.switch_cpus.data       864553                       # number of demand (read+write) misses
system.cpu.dcache.demand_misses::total         864556                       # number of demand (read+write) misses
system.cpu.dcache.overall_misses::.cpu.data            3                       # number of overall misses
system.cpu.dcache.overall_misses::.switch_cpus.data       878816                       # number of overall misses
system.cpu.dcache.overall_misses::total        878819                       # number of overall misses
system.cpu.dcache.demand_miss_latency::.switch_cpus.data  59480888258                       # number of demand (read+write) miss cycles
system.cpu.dcache.demand_miss_latency::total  59480888258                       # number of demand (read+write) miss cycles
system.cpu.dcache.overall_miss_latency::.switch_cpus.data  59480888258                       # number of overall miss cycles
system.cpu.dcache.overall_miss_latency::total  59480888258                       # number of overall miss cycles
system.cpu.dcache.demand_accesses::.cpu.data            6                       # number of demand (read+write) accesses
system.cpu.dcache.demand_accesses::.switch_cpus.data     36328379                       # number of demand (read+write) accesses
system.cpu.dcache.demand_accesses::total     36328385                       # number of demand (read+write) accesses
system.cpu.dcache.overall_accesses::.cpu.data            6                       # number of overall (read+write) accesses
system.cpu.dcache.overall_accesses::.switch_cpus.data     36397569                       # number of overall (read+write) accesses
system.cpu.dcache.overall_accesses::total     36397575                       # number of overall (read+write) accesses
system.cpu.dcache.demand_miss_rate::.cpu.data     0.500000                       # miss rate for demand accesses
system.cpu.dcache.demand_miss_rate::.switch_cpus.data     0.023798                       # miss rate for demand accesses
system.cpu.dcache.demand_miss_rate::total     0.023798                       # miss rate for demand accesses
system.cpu.dcache.overall_miss_rate::.cpu.data     0.500000                       # miss rate for overall accesses
system.cpu.dcache.overall_miss_rate::.switch_cpus.data     0.024145                       # miss rate for overall accesses
system.cpu.dcache.overall_miss_rate::total     0.024145                       # miss rate for overall accesses
system.cpu.dcache.demand_avg_miss_latency::.switch_cpus.data 68799.585749                       # average overall miss latency
system.cpu.dcache.demand_avg_miss_latency::total 68799.347015                       # average overall miss latency
system.cpu.dcache.overall_avg_miss_latency::.switch_cpus.data 67682.982852                       # average overall miss latency
system.cpu.dcache.overall_avg_miss_latency::total 67682.751804                       # average overall miss latency
system.cpu.dcache.blocked_cycles::no_mshrs      7393766                       # number of cycles access was blocked
system.cpu.dcache.blocked_cycles::no_targets          546                       # number of cycles access was blocked
system.cpu.dcache.blocked::no_mshrs            119878                       # number of cycles access was blocked
system.cpu.dcache.blocked::no_targets               2                       # number of cycles access was blocked
system.cpu.dcache.avg_blocked_cycles::no_mshrs    61.677422                       # average number of cycles each access was blocked
system.cpu.dcache.avg_blocked_cycles::no_targets          273                       # average number of cycles each access was blocked
system.cpu.dcache.writebacks::.writebacks       164598                       # number of writebacks
system.cpu.dcache.writebacks::total            164598                       # number of writebacks
system.cpu.dcache.demand_mshr_hits::.switch_cpus.data       407231                       # number of demand (read+write) MSHR hits
system.cpu.dcache.demand_mshr_hits::total       407231                       # number of demand (read+write) MSHR hits
system.cpu.dcache.overall_mshr_hits::.switch_cpus.data       407231                       # number of overall MSHR hits
system.cpu.dcache.overall_mshr_hits::total       407231                       # number of overall MSHR hits
system.cpu.dcache.demand_mshr_misses::.switch_cpus.data       457322                       # number of demand (read+write) MSHR misses
system.cpu.dcache.demand_mshr_misses::total       457322                       # number of demand (read+write) MSHR misses
system.cpu.dcache.overall_mshr_misses::.switch_cpus.data       462448                       # number of overall MSHR misses
system.cpu.dcache.overall_mshr_misses::total       462448                       # number of overall MSHR misses
system.cpu.dcache.demand_mshr_miss_latency::.switch_cpus.data  36184377759                       # number of demand (read+write) MSHR miss cycles
system.cpu.dcache.demand_mshr_miss_latency::total  36184377759                       # number of demand (read+write) MSHR miss cycles
system.cpu.dcache.overall_mshr_miss_latency::.switch_cpus.data  36624841759                       # number of overall MSHR miss cycles
system.cpu.dcache.overall_mshr_miss_latency::total  36624841759                       # number of overall MSHR miss cycles
system.cpu.dcache.demand_mshr_miss_rate::.switch_cpus.data     0.012589                       # mshr miss rate for demand accesses
system.cpu.dcache.demand_mshr_miss_rate::total     0.012589                       # mshr miss rate for demand accesses
system.cpu.dcache.overall_mshr_miss_rate::.switch_cpus.data     0.012705                       # mshr miss rate for overall accesses
system.cpu.dcache.overall_mshr_miss_rate::total     0.012705                       # mshr miss rate for overall accesses
system.cpu.dcache.demand_avg_mshr_miss_latency::.switch_cpus.data 79122.320289                       # average overall mshr miss latency
system.cpu.dcache.demand_avg_mshr_miss_latency::total 79122.320289                       # average overall mshr miss latency
system.cpu.dcache.overall_avg_mshr_miss_latency::.switch_cpus.data 79197.751442                       # average overall mshr miss latency
system.cpu.dcache.overall_avg_mshr_miss_latency::total 79197.751442                       # average overall mshr miss latency
system.cpu.dcache.replacements                 461421                       # number of replacements
system.cpu.dcache.ReadReq_hits::.cpu.data            2                       # number of ReadReq hits
system.cpu.dcache.ReadReq_hits::.switch_cpus.data     27005977                       # number of ReadReq hits
system.cpu.dcache.ReadReq_hits::total        27005979                       # number of ReadReq hits
system.cpu.dcache.ReadReq_misses::.cpu.data            2                       # number of ReadReq misses
system.cpu.dcache.ReadReq_misses::.switch_cpus.data       741308                       # number of ReadReq misses
system.cpu.dcache.ReadReq_misses::total        741310                       # number of ReadReq misses
system.cpu.dcache.ReadReq_miss_latency::.switch_cpus.data  49929766000                       # number of ReadReq miss cycles
system.cpu.dcache.ReadReq_miss_latency::total  49929766000                       # number of ReadReq miss cycles
system.cpu.dcache.ReadReq_accesses::.cpu.data            4                       # number of ReadReq accesses(hits+misses)
system.cpu.dcache.ReadReq_accesses::.switch_cpus.data     27747285                       # number of ReadReq accesses(hits+misses)
system.cpu.dcache.ReadReq_accesses::total     27747289                       # number of ReadReq accesses(hits+misses)
system.cpu.dcache.ReadReq_miss_rate::.cpu.data     0.500000                       # miss rate for ReadReq accesses
system.cpu.dcache.ReadReq_miss_rate::.switch_cpus.data     0.026716                       # miss rate for ReadReq accesses
system.cpu.dcache.ReadReq_miss_rate::total     0.026716                       # miss rate for ReadReq accesses
system.cpu.dcache.ReadReq_avg_miss_latency::.switch_cpus.data 67353.604710                       # average ReadReq miss latency
system.cpu.dcache.ReadReq_avg_miss_latency::total 67353.422994                       # average ReadReq miss latency
system.cpu.dcache.ReadReq_mshr_hits::.switch_cpus.data       407125                       # number of ReadReq MSHR hits
system.cpu.dcache.ReadReq_mshr_hits::total       407125                       # number of ReadReq MSHR hits
system.cpu.dcache.ReadReq_mshr_misses::.switch_cpus.data       334183                       # number of ReadReq MSHR misses
system.cpu.dcache.ReadReq_mshr_misses::total       334183                       # number of ReadReq MSHR misses
system.cpu.dcache.ReadReq_mshr_miss_latency::.switch_cpus.data  26757768000                       # number of ReadReq MSHR miss cycles
system.cpu.dcache.ReadReq_mshr_miss_latency::total  26757768000                       # number of ReadReq MSHR miss cycles
system.cpu.dcache.ReadReq_mshr_miss_rate::.switch_cpus.data     0.012044                       # mshr miss rate for ReadReq accesses
system.cpu.dcache.ReadReq_mshr_miss_rate::total     0.012044                       # mshr miss rate for ReadReq accesses
system.cpu.dcache.ReadReq_avg_mshr_miss_latency::.switch_cpus.data 80069.207590                       # average ReadReq mshr miss latency
system.cpu.dcache.ReadReq_avg_mshr_miss_latency::total 80069.207590                       # average ReadReq mshr miss latency
system.cpu.dcache.WriteReq_hits::.cpu.data            1                       # number of WriteReq hits
system.cpu.dcache.WriteReq_hits::.switch_cpus.data      8457849                       # number of WriteReq hits
system.cpu.dcache.WriteReq_hits::total        8457850                       # number of WriteReq hits
system.cpu.dcache.WriteReq_misses::.cpu.data            1                       # number of WriteReq misses
system.cpu.dcache.WriteReq_misses::.switch_cpus.data       123245                       # number of WriteReq misses
system.cpu.dcache.WriteReq_misses::total       123246                       # number of WriteReq misses
system.cpu.dcache.WriteReq_miss_latency::.switch_cpus.data   9551122258                       # number of WriteReq miss cycles
system.cpu.dcache.WriteReq_miss_latency::total   9551122258                       # number of WriteReq miss cycles
system.cpu.dcache.WriteReq_accesses::.cpu.data            2                       # number of WriteReq accesses(hits+misses)
system.cpu.dcache.WriteReq_accesses::.switch_cpus.data      8581094                       # number of WriteReq accesses(hits+misses)
system.cpu.dcache.WriteReq_accesses::total      8581096                       # number of WriteReq accesses(hits+misses)
system.cpu.dcache.WriteReq_miss_rate::.cpu.data     0.500000                       # miss rate for WriteReq accesses
system.cpu.dcache.WriteReq_miss_rate::.switch_cpus.data     0.014362                       # miss rate for WriteReq accesses
system.cpu.dcache.WriteReq_miss_rate::total     0.014363                       # miss rate for WriteReq accesses
system.cpu.dcache.WriteReq_avg_miss_latency::.switch_cpus.data 77497.036456                       # average WriteReq miss latency
system.cpu.dcache.WriteReq_avg_miss_latency::total 77496.407656                       # average WriteReq miss latency
system.cpu.dcache.WriteReq_mshr_hits::.switch_cpus.data          106                       # number of WriteReq MSHR hits
system.cpu.dcache.WriteReq_mshr_hits::total          106                       # number of WriteReq MSHR hits
system.cpu.dcache.WriteReq_mshr_misses::.switch_cpus.data       123139                       # number of WriteReq MSHR misses
system.cpu.dcache.WriteReq_mshr_misses::total       123139                       # number of WriteReq MSHR misses
system.cpu.dcache.WriteReq_mshr_miss_latency::.switch_cpus.data   9426609759                       # number of WriteReq MSHR miss cycles
system.cpu.dcache.WriteReq_mshr_miss_latency::total   9426609759                       # number of WriteReq MSHR miss cycles
system.cpu.dcache.WriteReq_mshr_miss_rate::.switch_cpus.data     0.014350                       # mshr miss rate for WriteReq accesses
system.cpu.dcache.WriteReq_mshr_miss_rate::total     0.014350                       # mshr miss rate for WriteReq accesses
system.cpu.dcache.WriteReq_avg_mshr_miss_latency::.switch_cpus.data 76552.593078                       # average WriteReq mshr miss latency
system.cpu.dcache.WriteReq_avg_mshr_miss_latency::total 76552.593078                       # average WriteReq mshr miss latency
system.cpu.dcache.SoftPFReq_hits::.switch_cpus.data        54927                       # number of SoftPFReq hits
system.cpu.dcache.SoftPFReq_hits::total         54927                       # number of SoftPFReq hits
system.cpu.dcache.SoftPFReq_misses::.switch_cpus.data        14263                       # number of SoftPFReq misses
system.cpu.dcache.SoftPFReq_misses::total        14263                       # number of SoftPFReq misses
system.cpu.dcache.SoftPFReq_accesses::.switch_cpus.data        69190                       # number of SoftPFReq accesses(hits+misses)
system.cpu.dcache.SoftPFReq_accesses::total        69190                       # number of SoftPFReq accesses(hits+misses)
system.cpu.dcache.SoftPFReq_miss_rate::.switch_cpus.data     0.206143                       # miss rate for SoftPFReq accesses
system.cpu.dcache.SoftPFReq_miss_rate::total     0.206143                       # miss rate for SoftPFReq accesses
system.cpu.dcache.SoftPFReq_mshr_misses::.switch_cpus.data         5126                       # number of SoftPFReq MSHR misses
system.cpu.dcache.SoftPFReq_mshr_misses::total         5126                       # number of SoftPFReq MSHR misses
system.cpu.dcache.SoftPFReq_mshr_miss_latency::.switch_cpus.data    440464000                       # number of SoftPFReq MSHR miss cycles
system.cpu.dcache.SoftPFReq_mshr_miss_latency::total    440464000                       # number of SoftPFReq MSHR miss cycles
system.cpu.dcache.SoftPFReq_mshr_miss_rate::.switch_cpus.data     0.074086                       # mshr miss rate for SoftPFReq accesses
system.cpu.dcache.SoftPFReq_mshr_miss_rate::total     0.074086                       # mshr miss rate for SoftPFReq accesses
system.cpu.dcache.SoftPFReq_avg_mshr_miss_latency::.switch_cpus.data 85927.428794                       # average SoftPFReq mshr miss latency
system.cpu.dcache.SoftPFReq_avg_mshr_miss_latency::total 85927.428794                       # average SoftPFReq mshr miss latency
system.cpu.dcache.tags.pwrStateResidencyTicks::UNDEFINED 572596937864000                       # Cumulative time (in ticks) in various power states
system.cpu.dcache.tags.tagsinuse             0.052863                       # Cycle average of tags in use
system.cpu.dcache.tags.total_refs            35981207                       # Total number of references to valid blocks.
system.cpu.dcache.tags.sampled_refs            462445                       # Sample count of references to valid blocks.
system.cpu.dcache.tags.avg_refs             77.806457                       # Average number of references to valid blocks.
system.cpu.dcache.tags.warmup_cycle      572567313256500                       # Cycle when the warmup percentage was hit.
system.cpu.dcache.tags.occ_blocks::.cpu.data     0.000002                       # Average occupied blocks per requestor
system.cpu.dcache.tags.occ_blocks::.switch_cpus.data     0.052861                       # Average occupied blocks per requestor
system.cpu.dcache.tags.occ_percent::.cpu.data     0.000000                       # Average percentage of cache occupancy
system.cpu.dcache.tags.occ_percent::.switch_cpus.data     0.000052                       # Average percentage of cache occupancy
system.cpu.dcache.tags.occ_percent::total     0.000052                       # Average percentage of cache occupancy
system.cpu.dcache.tags.occ_task_id_blocks::1024         1024                       # Occupied blocks per task id
system.cpu.dcache.tags.age_task_id_blocks_1024::0          115                       # Occupied blocks per task id
system.cpu.dcache.tags.age_task_id_blocks_1024::1          554                       # Occupied blocks per task id
system.cpu.dcache.tags.age_task_id_blocks_1024::2          349                       # Occupied blocks per task id
system.cpu.dcache.tags.age_task_id_blocks_1024::3            6                       # Occupied blocks per task id
system.cpu.dcache.tags.occ_task_id_percent::1024            1                       # Percentage of cache occupancy per task id
system.cpu.dcache.tags.tag_accesses          73257595                       # Number of tag accesses
system.cpu.dcache.tags.data_accesses         73257595                       # Number of data accesses

---------- End Simulation Statistics   ----------
