
---------- Begin Simulation Statistics ----------
final_tick                               926049695511500                       # Number of ticks from beginning of simulation (restored from checkpoints and never reset)
host_inst_rate                                  24668                       # Simulator instruction rate (inst/s)
host_mem_usage                                 829068                       # Number of bytes of host memory used
host_op_rate                                    41504                       # Simulator op (including micro ops) rate (op/s)
host_seconds                                   405.39                       # Real time elapsed on the host
host_tick_rate                               24895333                       # Simulator tick rate (ticks/s)
sim_freq                                 1000000000000                       # Frequency of simulated ticks
sim_insts                                    10000009                       # Number of instructions simulated
sim_ops                                      16825012                       # Number of ops (including micro ops) simulated
sim_seconds                                  0.010092                       # Number of seconds simulated
sim_ticks                                 10092229000                       # Number of ticks simulated
system.cpu.Branches                                 3                       # Number of branches fetched
system.cpu.committedInsts                           9                       # Number of instructions committed
system.cpu.committedOps                            18                       # Number of ops (including micro ops) committed
system.cpu.dtb.rdAccesses                           2                       # TLB accesses on read requests
system.cpu.dtb.rdMisses                             0                       # TLB misses on read requests
system.cpu.dtb.wrAccesses                           0                       # TLB accesses on write requests
system.cpu.dtb.wrMisses                             0                       # TLB misses on write requests
system.cpu.idle_fraction                            0                       # Percentage of idle cycles
system.cpu.itb.rdAccesses                           0                       # TLB accesses on read requests
system.cpu.itb.rdMisses                             0                       # TLB misses on read requests
system.cpu.itb.wrAccesses                          11                       # TLB accesses on write requests
system.cpu.itb.wrMisses                             0                       # TLB misses on write requests
system.cpu.not_idle_fraction                        1                       # Percentage of non-idle cycles
system.cpu.numCycles                               20                       # number of cpu cycles simulated
system.cpu.numWorkItemsCompleted                    0                       # number of work items this cpu completed
system.cpu.numWorkItemsStarted                      0                       # number of work items this cpu started
system.cpu.num_busy_cycles                         20                       # Number of busy cycles
system.cpu.num_cc_register_reads                   15                       # number of times the CC registers were read
system.cpu.num_cc_register_writes                   8                       # number of times the CC registers were written
system.cpu.num_conditional_control_insts            3                       # number of instructions that are conditional controls
system.cpu.num_fp_alu_accesses                      0                       # Number of float alu accesses
system.cpu.num_fp_insts                             0                       # number of float instructions
system.cpu.num_fp_register_reads                    0                       # number of times the floating registers were read
system.cpu.num_fp_register_writes                   0                       # number of times the floating registers were written
system.cpu.num_func_calls                           0                       # number of times a function call or return occured
system.cpu.num_idle_cycles                          0                       # Number of idle cycles
system.cpu.num_int_alu_accesses                    18                       # Number of integer alu accesses
system.cpu.num_int_insts                           18                       # number of integer instructions
system.cpu.num_int_register_reads                  29                       # number of times the integer registers were read
system.cpu.num_int_register_writes                 15                       # number of times the integer registers were written
system.cpu.num_load_insts                           2                       # Number of load instructions
system.cpu.num_mem_refs                             2                       # number of memory refs
system.cpu.num_store_insts                          0                       # Number of store instructions
system.cpu.num_vec_alu_accesses                     0                       # Number of vector alu accesses
system.cpu.num_vec_insts                            0                       # number of vector instructions
system.cpu.num_vec_register_reads                   0                       # number of times the vector registers were read
system.cpu.num_vec_register_writes                  0                       # number of times the vector registers were written
system.cpu.op_class::No_OpClass                     0      0.00%      0.00% # Class of executed instruction
system.cpu.op_class::IntAlu                        16     88.89%     88.89% # Class of executed instruction
system.cpu.op_class::IntMult                        0      0.00%     88.89% # Class of executed instruction
system.cpu.op_class::IntDiv                         0      0.00%     88.89% # Class of executed instruction
system.cpu.op_class::FloatAdd                       0      0.00%     88.89% # Class of executed instruction
system.cpu.op_class::FloatCmp                       0      0.00%     88.89% # Class of executed instruction
system.cpu.op_class::FloatCvt                       0      0.00%     88.89% # Class of executed instruction
system.cpu.op_class::FloatMult                      0      0.00%     88.89% # Class of executed instruction
system.cpu.op_class::FloatMultAcc                   0      0.00%     88.89% # Class of executed instruction
system.cpu.op_class::FloatDiv                       0      0.00%     88.89% # Class of executed instruction
system.cpu.op_class::FloatMisc                      0      0.00%     88.89% # Class of executed instruction
system.cpu.op_class::FloatSqrt                      0      0.00%     88.89% # Class of executed instruction
system.cpu.op_class::SimdAdd                        0      0.00%     88.89% # Class of executed instruction
system.cpu.op_class::SimdAddAcc                     0      0.00%     88.89% # Class of executed instruction
system.cpu.op_class::SimdAlu                        0      0.00%     88.89% # Class of executed instruction
system.cpu.op_class::SimdCmp                        0      0.00%     88.89% # Class of executed instruction
system.cpu.op_class::SimdCvt                        0      0.00%     88.89% # Class of executed instruction
system.cpu.op_class::SimdMisc                       0      0.00%     88.89% # Class of executed instruction
system.cpu.op_class::SimdMult                       0      0.00%     88.89% # Class of executed instruction
system.cpu.op_class::SimdMultAcc                    0      0.00%     88.89% # Class of executed instruction
system.cpu.op_class::SimdShift                      0      0.00%     88.89% # Class of executed instruction
system.cpu.op_class::SimdShiftAcc                   0      0.00%     88.89% # Class of executed instruction
system.cpu.op_class::SimdDiv                        0      0.00%     88.89% # Class of executed instruction
system.cpu.op_class::SimdSqrt                       0      0.00%     88.89% # Class of executed instruction
system.cpu.op_class::SimdFloatAdd                   0      0.00%     88.89% # Class of executed instruction
system.cpu.op_class::SimdFloatAlu                   0      0.00%     88.89% # Class of executed instruction
system.cpu.op_class::SimdFloatCmp                   0      0.00%     88.89% # Class of executed instruction
system.cpu.op_class::SimdFloatCvt                   0      0.00%     88.89% # Class of executed instruction
system.cpu.op_class::SimdFloatDiv                   0      0.00%     88.89% # Class of executed instruction
system.cpu.op_class::SimdFloatMisc                  0      0.00%     88.89% # Class of executed instruction
system.cpu.op_class::SimdFloatMult                  0      0.00%     88.89% # Class of executed instruction
system.cpu.op_class::SimdFloatMultAcc               0      0.00%     88.89% # Class of executed instruction
system.cpu.op_class::SimdFloatSqrt                  0      0.00%     88.89% # Class of executed instruction
system.cpu.op_class::SimdReduceAdd                  0      0.00%     88.89% # Class of executed instruction
system.cpu.op_class::SimdReduceAlu                  0      0.00%     88.89% # Class of executed instruction
system.cpu.op_class::SimdReduceCmp                  0      0.00%     88.89% # Class of executed instruction
system.cpu.op_class::SimdFloatReduceAdd             0      0.00%     88.89% # Class of executed instruction
system.cpu.op_class::SimdFloatReduceCmp             0      0.00%     88.89% # Class of executed instruction
system.cpu.op_class::SimdAes                        0      0.00%     88.89% # Class of executed instruction
system.cpu.op_class::SimdAesMix                     0      0.00%     88.89% # Class of executed instruction
system.cpu.op_class::SimdSha1Hash                   0      0.00%     88.89% # Class of executed instruction
system.cpu.op_class::SimdSha1Hash2                  0      0.00%     88.89% # Class of executed instruction
system.cpu.op_class::SimdSha256Hash                 0      0.00%     88.89% # Class of executed instruction
system.cpu.op_class::SimdSha256Hash2                0      0.00%     88.89% # Class of executed instruction
system.cpu.op_class::SimdShaSigma2                  0      0.00%     88.89% # Class of executed instruction
system.cpu.op_class::SimdShaSigma3                  0      0.00%     88.89% # Class of executed instruction
system.cpu.op_class::SimdPredAlu                    0      0.00%     88.89% # Class of executed instruction
system.cpu.op_class::MemRead                        2     11.11%    100.00% # Class of executed instruction
system.cpu.op_class::MemWrite                       0      0.00%    100.00% # Class of executed instruction
system.cpu.op_class::FloatMemRead                   0      0.00%    100.00% # Class of executed instruction
system.cpu.op_class::FloatMemWrite                  0      0.00%    100.00% # Class of executed instruction
system.cpu.op_class::IprAccess                      0      0.00%    100.00% # Class of executed instruction
system.cpu.op_class::InstPrefetch                   0      0.00%    100.00% # Class of executed instruction
system.cpu.op_class::total                         18                       # Class of executed instruction
system.cpu.workload.numSyscalls                     0                       # Number of system calls
system.membus.snoop_filter.hit_multi_requests            0                       # Number of requests hitting in the snoop filter with multiple (>1) holders of the requested data.
system.membus.snoop_filter.hit_multi_snoops            0                       # Number of snoops hitting in the snoop filter with multiple (>1) holders of the requested data.
system.membus.snoop_filter.hit_single_requests       159067                       # Number of requests hitting in the snoop filter with a single holder of the requested data.
system.membus.snoop_filter.hit_single_snoops            0                       # Number of snoops hitting in the snoop filter with a single holder of the requested data.
system.membus.snoop_filter.tot_requests        320245                       # Total number of requests made to the snoop filter.
system.membus.snoop_filter.tot_snoops               0                       # Total number of snoops made to the snoop filter.
system.switch_cpus.branchPred.BTBCorrect            0                       # Number of correct BTB predictions (this stat may not work properly.
system.switch_cpus.branchPred.BTBHitPct      0.000000                       # BTB Hit Percentage
system.switch_cpus.branchPred.BTBHits               0                       # Number of BTB hits
system.switch_cpus.branchPred.BTBLookups      5023197                       # Number of BTB lookups
system.switch_cpus.branchPred.RASInCorrect            0                       # Number of incorrect RAS predictions.
system.switch_cpus.branchPred.condIncorrect       572221                       # Number of conditional branches incorrect
system.switch_cpus.branchPred.condPredicted      6103771                       # Number of conditional branches predicted
system.switch_cpus.branchPred.indirectHits      2847959                       # Number of indirect target hits.
system.switch_cpus.branchPred.indirectLookups      5023197                       # Number of indirect predictor lookups.
system.switch_cpus.branchPred.indirectMisses      2175238                       # Number of indirect misses.
system.switch_cpus.branchPred.lookups         6127307                       # Number of BP lookups
system.switch_cpus.branchPred.usedRAS               5                       # Number of times the RAS was used to get a target.
system.switch_cpus.branchPredindirectMispredicted       270775                       # Number of mispredicted indirect branches.
system.switch_cpus.cc_regfile_reads          16205965                       # number of cc regfile reads
system.switch_cpus.cc_regfile_writes         12084833                       # number of cc regfile writes
system.switch_cpus.commit.amos                      0                       # Number of atomic instructions committed
system.switch_cpus.commit.branchMispredicts       572221                       # The number of times a branch was mispredicted
system.switch_cpus.commit.branches            2315914                       # Number of branches committed
system.switch_cpus.commit.bw_lim_events        994231                       # number cycles where commit BW limit reached
system.switch_cpus.commit.commitSquashedInsts     19508255                       # The number of squashed insts skipped by commit
system.switch_cpus.commit.committedInsts     10000000                       # Number of instructions committed
system.switch_cpus.commit.committedOps       16824994                       # Number of ops (including micro ops) committed
system.switch_cpus.commit.committed_per_cycle::samples     17201066                       # Number of insts commited each cycle
system.switch_cpus.commit.committed_per_cycle::mean     0.978137                       # Number of insts commited each cycle
system.switch_cpus.commit.committed_per_cycle::stdev     2.163106                       # Number of insts commited each cycle
system.switch_cpus.commit.committed_per_cycle::underflows            0      0.00%      0.00% # Number of insts commited each cycle
system.switch_cpus.commit.committed_per_cycle::0     12792138     74.37%     74.37% # Number of insts commited each cycle
system.switch_cpus.commit.committed_per_cycle::1      1230366      7.15%     81.52% # Number of insts commited each cycle
system.switch_cpus.commit.committed_per_cycle::2       809504      4.71%     86.23% # Number of insts commited each cycle
system.switch_cpus.commit.committed_per_cycle::3       508433      2.96%     89.18% # Number of insts commited each cycle
system.switch_cpus.commit.committed_per_cycle::4       259444      1.51%     90.69% # Number of insts commited each cycle
system.switch_cpus.commit.committed_per_cycle::5       322042      1.87%     92.56% # Number of insts commited each cycle
system.switch_cpus.commit.committed_per_cycle::6       145869      0.85%     93.41% # Number of insts commited each cycle
system.switch_cpus.commit.committed_per_cycle::7       139039      0.81%     94.22% # Number of insts commited each cycle
system.switch_cpus.commit.committed_per_cycle::8       994231      5.78%    100.00% # Number of insts commited each cycle
system.switch_cpus.commit.committed_per_cycle::overflows            0      0.00%    100.00% # Number of insts commited each cycle
system.switch_cpus.commit.committed_per_cycle::min_value            0                       # Number of insts commited each cycle
system.switch_cpus.commit.committed_per_cycle::max_value            8                       # Number of insts commited each cycle
system.switch_cpus.commit.committed_per_cycle::total     17201066                       # Number of insts commited each cycle
system.switch_cpus.commit.fp_insts              36688                       # Number of committed floating point instructions.
system.switch_cpus.commit.function_calls            0                       # Number of function calls committed.
system.switch_cpus.commit.int_insts          16806537                       # Number of committed integer instructions.
system.switch_cpus.commit.loads               1871375                       # Number of loads committed
system.switch_cpus.commit.membars                   0                       # Number of memory barriers committed
system.switch_cpus.commit.op_class_0::No_OpClass        18457      0.11%      0.11% # Class of committed instruction
system.switch_cpus.commit.op_class_0::IntAlu     14350129     85.29%     85.40% # Class of committed instruction
system.switch_cpus.commit.op_class_0::IntMult        10952      0.07%     85.47% # Class of committed instruction
system.switch_cpus.commit.op_class_0::IntDiv            0      0.00%     85.47% # Class of committed instruction
system.switch_cpus.commit.op_class_0::FloatAdd            0      0.00%     85.47% # Class of committed instruction
system.switch_cpus.commit.op_class_0::FloatCmp            0      0.00%     85.47% # Class of committed instruction
system.switch_cpus.commit.op_class_0::FloatCvt            0      0.00%     85.47% # Class of committed instruction
system.switch_cpus.commit.op_class_0::FloatMult            0      0.00%     85.47% # Class of committed instruction
system.switch_cpus.commit.op_class_0::FloatMultAcc            0      0.00%     85.47% # Class of committed instruction
system.switch_cpus.commit.op_class_0::FloatDiv            0      0.00%     85.47% # Class of committed instruction
system.switch_cpus.commit.op_class_0::FloatMisc            0      0.00%     85.47% # Class of committed instruction
system.switch_cpus.commit.op_class_0::FloatSqrt            0      0.00%     85.47% # Class of committed instruction
system.switch_cpus.commit.op_class_0::SimdAdd            0      0.00%     85.47% # Class of committed instruction
system.switch_cpus.commit.op_class_0::SimdAddAcc            0      0.00%     85.47% # Class of committed instruction
system.switch_cpus.commit.op_class_0::SimdAlu            0      0.00%     85.47% # Class of committed instruction
system.switch_cpus.commit.op_class_0::SimdCmp            0      0.00%     85.47% # Class of committed instruction
system.switch_cpus.commit.op_class_0::SimdCvt            0      0.00%     85.47% # Class of committed instruction
system.switch_cpus.commit.op_class_0::SimdMisc            0      0.00%     85.47% # Class of committed instruction
system.switch_cpus.commit.op_class_0::SimdMult            0      0.00%     85.47% # Class of committed instruction
system.switch_cpus.commit.op_class_0::SimdMultAcc            0      0.00%     85.47% # Class of committed instruction
system.switch_cpus.commit.op_class_0::SimdShift            0      0.00%     85.47% # Class of committed instruction
system.switch_cpus.commit.op_class_0::SimdShiftAcc            0      0.00%     85.47% # Class of committed instruction
system.switch_cpus.commit.op_class_0::SimdDiv            0      0.00%     85.47% # Class of committed instruction
system.switch_cpus.commit.op_class_0::SimdSqrt            0      0.00%     85.47% # Class of committed instruction
system.switch_cpus.commit.op_class_0::SimdFloatAdd            0      0.00%     85.47% # Class of committed instruction
system.switch_cpus.commit.op_class_0::SimdFloatAlu            0      0.00%     85.47% # Class of committed instruction
system.switch_cpus.commit.op_class_0::SimdFloatCmp            0      0.00%     85.47% # Class of committed instruction
system.switch_cpus.commit.op_class_0::SimdFloatCvt            0      0.00%     85.47% # Class of committed instruction
system.switch_cpus.commit.op_class_0::SimdFloatDiv            0      0.00%     85.47% # Class of committed instruction
system.switch_cpus.commit.op_class_0::SimdFloatMisc            0      0.00%     85.47% # Class of committed instruction
system.switch_cpus.commit.op_class_0::SimdFloatMult            0      0.00%     85.47% # Class of committed instruction
system.switch_cpus.commit.op_class_0::SimdFloatMultAcc            0      0.00%     85.47% # Class of committed instruction
system.switch_cpus.commit.op_class_0::SimdFloatSqrt            0      0.00%     85.47% # Class of committed instruction
system.switch_cpus.commit.op_class_0::SimdReduceAdd            0      0.00%     85.47% # Class of committed instruction
system.switch_cpus.commit.op_class_0::SimdReduceAlu            0      0.00%     85.47% # Class of committed instruction
system.switch_cpus.commit.op_class_0::SimdReduceCmp            0      0.00%     85.47% # Class of committed instruction
system.switch_cpus.commit.op_class_0::SimdFloatReduceAdd            0      0.00%     85.47% # Class of committed instruction
system.switch_cpus.commit.op_class_0::SimdFloatReduceCmp            0      0.00%     85.47% # Class of committed instruction
system.switch_cpus.commit.op_class_0::SimdAes            0      0.00%     85.47% # Class of committed instruction
system.switch_cpus.commit.op_class_0::SimdAesMix            0      0.00%     85.47% # Class of committed instruction
system.switch_cpus.commit.op_class_0::SimdSha1Hash            0      0.00%     85.47% # Class of committed instruction
system.switch_cpus.commit.op_class_0::SimdSha1Hash2            0      0.00%     85.47% # Class of committed instruction
system.switch_cpus.commit.op_class_0::SimdSha256Hash            0      0.00%     85.47% # Class of committed instruction
system.switch_cpus.commit.op_class_0::SimdSha256Hash2            0      0.00%     85.47% # Class of committed instruction
system.switch_cpus.commit.op_class_0::SimdShaSigma2            0      0.00%     85.47% # Class of committed instruction
system.switch_cpus.commit.op_class_0::SimdShaSigma3            0      0.00%     85.47% # Class of committed instruction
system.switch_cpus.commit.op_class_0::SimdPredAlu            0      0.00%     85.47% # Class of committed instruction
system.switch_cpus.commit.op_class_0::MemRead      1853031     11.01%     96.48% # Class of committed instruction
system.switch_cpus.commit.op_class_0::MemWrite       555737      3.30%     99.78% # Class of committed instruction
system.switch_cpus.commit.op_class_0::FloatMemRead        18344      0.11%     99.89% # Class of committed instruction
system.switch_cpus.commit.op_class_0::FloatMemWrite        18344      0.11%    100.00% # Class of committed instruction
system.switch_cpus.commit.op_class_0::IprAccess            0      0.00%    100.00% # Class of committed instruction
system.switch_cpus.commit.op_class_0::InstPrefetch            0      0.00%    100.00% # Class of committed instruction
system.switch_cpus.commit.op_class_0::total     16824994                       # Class of committed instruction
system.switch_cpus.commit.refs                2445456                       # Number of memory references committed
system.switch_cpus.commit.swp_count                 0                       # Number of s/w prefetches committed
system.switch_cpus.commit.vec_insts                 0                       # Number of committed Vector instructions.
system.switch_cpus.committedInsts            10000000                       # Number of Instructions Simulated
system.switch_cpus.committedOps              16824994                       # Number of Ops (including micro ops) Simulated
system.switch_cpus.cpi                       2.018444                       # CPI: Cycles Per Instruction
system.switch_cpus.cpi_total                 2.018444                       # CPI: Total CPI of All Threads
system.switch_cpus.decode.BlockedCycles       8599475                       # Number of cycles decode is blocked
system.switch_cpus.decode.DecodedInsts       43529381                       # Number of instructions handled by decode
system.switch_cpus.decode.IdleCycles          3949431                       # Number of cycles decode is idle
system.switch_cpus.decode.RunCycles           6453023                       # Number of cycles decode is running
system.switch_cpus.decode.SquashCycles         573511                       # Number of cycles decode is squashing
system.switch_cpus.decode.UnblockCycles        606329                       # Number of cycles decode is unblocking
system.switch_cpus.dtb.rdAccesses             3275703                       # TLB accesses on read requests
system.switch_cpus.dtb.rdMisses                370565                       # TLB misses on read requests
system.switch_cpus.dtb.wrAccesses             1041254                       # TLB accesses on write requests
system.switch_cpus.dtb.wrMisses                  3343                       # TLB misses on write requests
system.switch_cpus.fetch.Branches             6127307                       # Number of branches that fetch encountered
system.switch_cpus.fetch.CacheLines           4675185                       # Number of cache lines fetched
system.switch_cpus.fetch.Cycles              14637766                       # Number of cycles fetch has run and was not squashing or blocked
system.switch_cpus.fetch.IcacheSquashes        171549                       # Number of outstanding Icache misses that were squashed
system.switch_cpus.fetch.Insts               29448107                       # Number of instructions fetch has processed
system.switch_cpus.fetch.SquashCycles         1147022                       # Number of cycles fetch has spent squashing
system.switch_cpus.fetch.branchRate          0.303566                       # Number of branch fetches per cycle
system.switch_cpus.fetch.icacheStallCycles      4970497                       # Number of cycles fetch is stalled on an Icache miss
system.switch_cpus.fetch.predictedBranches      2847964                       # Number of branches that fetch has predicted taken
system.switch_cpus.fetch.rate                1.458951                       # Number of inst fetches per cycle
system.switch_cpus.fetch.rateDist::samples     20181774                       # Number of instructions fetched each cycle (Total)
system.switch_cpus.fetch.rateDist::mean      2.369361                       # Number of instructions fetched each cycle (Total)
system.switch_cpus.fetch.rateDist::stdev     3.251968                       # Number of instructions fetched each cycle (Total)
system.switch_cpus.fetch.rateDist::underflows            0      0.00%      0.00% # Number of instructions fetched each cycle (Total)
system.switch_cpus.fetch.rateDist::0         11713068     58.04%     58.04% # Number of instructions fetched each cycle (Total)
system.switch_cpus.fetch.rateDist::1           687172      3.40%     61.44% # Number of instructions fetched each cycle (Total)
system.switch_cpus.fetch.rateDist::2           851941      4.22%     65.66% # Number of instructions fetched each cycle (Total)
system.switch_cpus.fetch.rateDist::3           953206      4.72%     70.39% # Number of instructions fetched each cycle (Total)
system.switch_cpus.fetch.rateDist::4           475177      2.35%     72.74% # Number of instructions fetched each cycle (Total)
system.switch_cpus.fetch.rateDist::5           428918      2.13%     74.87% # Number of instructions fetched each cycle (Total)
system.switch_cpus.fetch.rateDist::6           972912      4.82%     79.69% # Number of instructions fetched each cycle (Total)
system.switch_cpus.fetch.rateDist::7           110578      0.55%     80.24% # Number of instructions fetched each cycle (Total)
system.switch_cpus.fetch.rateDist::8          3988802     19.76%    100.00% # Number of instructions fetched each cycle (Total)
system.switch_cpus.fetch.rateDist::overflows            0      0.00%    100.00% # Number of instructions fetched each cycle (Total)
system.switch_cpus.fetch.rateDist::min_value            0                       # Number of instructions fetched each cycle (Total)
system.switch_cpus.fetch.rateDist::max_value            8                       # Number of instructions fetched each cycle (Total)
system.switch_cpus.fetch.rateDist::total     20181774                       # Number of instructions fetched each cycle (Total)
system.switch_cpus.fp_regfile_reads             18394                       # number of floating regfile reads
system.switch_cpus.fp_regfile_writes            18597                       # number of floating regfile writes
system.switch_cpus.idleCycles                    2664                       # Total number of cycles that the CPU has spent unscheduled due to idling
system.switch_cpus.iew.branchMispredicts       647609                       # Number of branch mispredicts detected at execute
system.switch_cpus.iew.exec_branches          3625731                       # Number of branches executed
system.switch_cpus.iew.exec_nop                     0                       # number of nop insts executed
system.switch_cpus.iew.exec_rate             1.553415                       # Inst execution rate
system.switch_cpus.iew.exec_refs              4850593                       # number of memory reference insts executed
system.switch_cpus.iew.exec_stores            1040113                       # Number of stores executed
system.switch_cpus.iew.exec_swp                     0                       # number of swp insts executed
system.switch_cpus.iew.iewBlockCycles         2711802                       # Number of cycles IEW is blocking
system.switch_cpus.iew.iewDispLoadInsts       4012891                       # Number of dispatched load instructions
system.switch_cpus.iew.iewDispNonSpecInsts            0                       # Number of dispatched non-speculative instructions
system.switch_cpus.iew.iewDispSquashedInsts        63024                       # Number of squashed instructions skipped by dispatch
system.switch_cpus.iew.iewDispStoreInsts      1527137                       # Number of dispatched store instructions
system.switch_cpus.iew.iewDispatchedInsts     36333421                       # Number of instructions dispatched to IQ
system.switch_cpus.iew.iewExecLoadInsts       3810480                       # Number of load instructions executed
system.switch_cpus.iew.iewExecSquashedInsts      1296318                       # Number of squashed instructions skipped in execute
system.switch_cpus.iew.iewExecutedInsts      31354811                       # Number of executed instructions
system.switch_cpus.iew.iewIQFullEvents          10223                       # Number of times the IQ has become full, causing a stall
system.switch_cpus.iew.iewIdleCycles                0                       # Number of cycles IEW is idle
system.switch_cpus.iew.iewLSQFullEvents             0                       # Number of times the LSQ has become full, causing a stall
system.switch_cpus.iew.iewSquashCycles         573511                       # Number of cycles IEW is squashing
system.switch_cpus.iew.iewUnblockCycles         13945                       # Number of cycles IEW is unblocking
system.switch_cpus.iew.lsq.thread0.blockedLoads            0                       # Number of blocked loads due to partial load-store forwarding
system.switch_cpus.iew.lsq.thread0.cacheBlocked       129557                       # Number of times an access to memory failed due to the cache being blocked
system.switch_cpus.iew.lsq.thread0.forwLoads       120996                       # Number of loads that had data forwarded from stores
system.switch_cpus.iew.lsq.thread0.ignoredResponses         1353                       # Number of memory responses ignored because the instruction is squashed
system.switch_cpus.iew.lsq.thread0.invAddrLoads            0                       # Number of loads ignored due to an invalid address
system.switch_cpus.iew.lsq.thread0.invAddrSwpfs            0                       # Number of software prefetches ignored due to an invalid address
system.switch_cpus.iew.lsq.thread0.memOrderViolation         2012                       # Number of memory ordering violations
system.switch_cpus.iew.lsq.thread0.rescheduledLoads            3                       # Number of loads that were rescheduled
system.switch_cpus.iew.lsq.thread0.squashedLoads      2141496                       # Number of loads squashed
system.switch_cpus.iew.lsq.thread0.squashedStores       953052                       # Number of stores squashed
system.switch_cpus.iew.memOrderViolationEvents         2012                       # Number of memory order violations
system.switch_cpus.iew.predictedNotTakenIncorrect       448770                       # Number of branches that were predicted not taken incorrectly
system.switch_cpus.iew.predictedTakenIncorrect       198839                       # Number of branches that were predicted taken incorrectly
system.switch_cpus.iew.wb_consumers          29887624                       # num instructions consuming a value
system.switch_cpus.iew.wb_count              30264394                       # cumulative count of insts written-back
system.switch_cpus.iew.wb_fanout             0.724689                       # average fanout of values written-back
system.switch_cpus.iew.wb_producers          21659218                       # num instructions producing a value
system.switch_cpus.iew.wb_rate               1.499392                       # insts written-back per cycle
system.switch_cpus.iew.wb_sent               30400422                       # cumulative count of insts sent to commit
system.switch_cpus.int_regfile_reads         41059467                       # number of integer regfile reads
system.switch_cpus.int_regfile_writes        25568226                       # number of integer regfile writes
system.switch_cpus.ipc                       0.495431                       # IPC: Instructions Per Cycle
system.switch_cpus.ipc_total                 0.495431                       # IPC: Total IPC of All Threads
system.switch_cpus.iq.FU_type_0::No_OpClass       126515      0.39%      0.39% # Type of FU issued
system.switch_cpus.iq.FU_type_0::IntAlu      27418859     83.98%     84.36% # Type of FU issued
system.switch_cpus.iq.FU_type_0::IntMult        13823      0.04%     84.41% # Type of FU issued
system.switch_cpus.iq.FU_type_0::IntDiv             0      0.00%     84.41% # Type of FU issued
system.switch_cpus.iq.FU_type_0::FloatAdd            0      0.00%     84.41% # Type of FU issued
system.switch_cpus.iq.FU_type_0::FloatCmp            0      0.00%     84.41% # Type of FU issued
system.switch_cpus.iq.FU_type_0::FloatCvt            0      0.00%     84.41% # Type of FU issued
system.switch_cpus.iq.FU_type_0::FloatMult            0      0.00%     84.41% # Type of FU issued
system.switch_cpus.iq.FU_type_0::FloatMultAcc            0      0.00%     84.41% # Type of FU issued
system.switch_cpus.iq.FU_type_0::FloatDiv            0      0.00%     84.41% # Type of FU issued
system.switch_cpus.iq.FU_type_0::FloatMisc            0      0.00%     84.41% # Type of FU issued
system.switch_cpus.iq.FU_type_0::FloatSqrt            0      0.00%     84.41% # Type of FU issued
system.switch_cpus.iq.FU_type_0::SimdAdd            0      0.00%     84.41% # Type of FU issued
system.switch_cpus.iq.FU_type_0::SimdAddAcc            0      0.00%     84.41% # Type of FU issued
system.switch_cpus.iq.FU_type_0::SimdAlu            0      0.00%     84.41% # Type of FU issued
system.switch_cpus.iq.FU_type_0::SimdCmp            0      0.00%     84.41% # Type of FU issued
system.switch_cpus.iq.FU_type_0::SimdCvt            0      0.00%     84.41% # Type of FU issued
system.switch_cpus.iq.FU_type_0::SimdMisc            0      0.00%     84.41% # Type of FU issued
system.switch_cpus.iq.FU_type_0::SimdMult            0      0.00%     84.41% # Type of FU issued
system.switch_cpus.iq.FU_type_0::SimdMultAcc            0      0.00%     84.41% # Type of FU issued
system.switch_cpus.iq.FU_type_0::SimdShift            0      0.00%     84.41% # Type of FU issued
system.switch_cpus.iq.FU_type_0::SimdShiftAcc            0      0.00%     84.41% # Type of FU issued
system.switch_cpus.iq.FU_type_0::SimdDiv            0      0.00%     84.41% # Type of FU issued
system.switch_cpus.iq.FU_type_0::SimdSqrt            0      0.00%     84.41% # Type of FU issued
system.switch_cpus.iq.FU_type_0::SimdFloatAdd            0      0.00%     84.41% # Type of FU issued
system.switch_cpus.iq.FU_type_0::SimdFloatAlu            0      0.00%     84.41% # Type of FU issued
system.switch_cpus.iq.FU_type_0::SimdFloatCmp            0      0.00%     84.41% # Type of FU issued
system.switch_cpus.iq.FU_type_0::SimdFloatCvt            0      0.00%     84.41% # Type of FU issued
system.switch_cpus.iq.FU_type_0::SimdFloatDiv            0      0.00%     84.41% # Type of FU issued
system.switch_cpus.iq.FU_type_0::SimdFloatMisc            0      0.00%     84.41% # Type of FU issued
system.switch_cpus.iq.FU_type_0::SimdFloatMult            0      0.00%     84.41% # Type of FU issued
system.switch_cpus.iq.FU_type_0::SimdFloatMultAcc            0      0.00%     84.41% # Type of FU issued
system.switch_cpus.iq.FU_type_0::SimdFloatSqrt            0      0.00%     84.41% # Type of FU issued
system.switch_cpus.iq.FU_type_0::SimdReduceAdd            0      0.00%     84.41% # Type of FU issued
system.switch_cpus.iq.FU_type_0::SimdReduceAlu            0      0.00%     84.41% # Type of FU issued
system.switch_cpus.iq.FU_type_0::SimdReduceCmp            0      0.00%     84.41% # Type of FU issued
system.switch_cpus.iq.FU_type_0::SimdFloatReduceAdd            0      0.00%     84.41% # Type of FU issued
system.switch_cpus.iq.FU_type_0::SimdFloatReduceCmp            0      0.00%     84.41% # Type of FU issued
system.switch_cpus.iq.FU_type_0::SimdAes            0      0.00%     84.41% # Type of FU issued
system.switch_cpus.iq.FU_type_0::SimdAesMix            0      0.00%     84.41% # Type of FU issued
system.switch_cpus.iq.FU_type_0::SimdSha1Hash            0      0.00%     84.41% # Type of FU issued
system.switch_cpus.iq.FU_type_0::SimdSha1Hash2            0      0.00%     84.41% # Type of FU issued
system.switch_cpus.iq.FU_type_0::SimdSha256Hash            0      0.00%     84.41% # Type of FU issued
system.switch_cpus.iq.FU_type_0::SimdSha256Hash2            0      0.00%     84.41% # Type of FU issued
system.switch_cpus.iq.FU_type_0::SimdShaSigma2            0      0.00%     84.41% # Type of FU issued
system.switch_cpus.iq.FU_type_0::SimdShaSigma3            0      0.00%     84.41% # Type of FU issued
system.switch_cpus.iq.FU_type_0::SimdPredAlu            0      0.00%     84.41% # Type of FU issued
system.switch_cpus.iq.FU_type_0::MemRead      3989080     12.22%     96.62% # Type of FU issued
system.switch_cpus.iq.FU_type_0::MemWrite      1065010      3.26%     99.88% # Type of FU issued
system.switch_cpus.iq.FU_type_0::FloatMemRead        19416      0.06%     99.94% # Type of FU issued
system.switch_cpus.iq.FU_type_0::FloatMemWrite        18428      0.06%    100.00% # Type of FU issued
system.switch_cpus.iq.FU_type_0::IprAccess            0      0.00%    100.00% # Type of FU issued
system.switch_cpus.iq.FU_type_0::InstPrefetch            0      0.00%    100.00% # Type of FU issued
system.switch_cpus.iq.FU_type_0::total       32651131                       # Type of FU issued
system.switch_cpus.iq.fp_alu_accesses           38490                       # Number of floating point alu accesses
system.switch_cpus.iq.fp_inst_queue_reads        76348                       # Number of floating instruction queue reads
system.switch_cpus.iq.fp_inst_queue_wakeup_accesses        36805                       # Number of floating instruction queue wakeup accesses
system.switch_cpus.iq.fp_inst_queue_writes        49596                       # Number of floating instruction queue writes
system.switch_cpus.iq.fu_busy_cnt              488395                       # FU busy when requested
system.switch_cpus.iq.fu_busy_rate           0.014958                       # FU busy rate (busy events/executed inst)
system.switch_cpus.iq.fu_full::No_OpClass            0      0.00%      0.00% # attempts to use FU when none available
system.switch_cpus.iq.fu_full::IntAlu          408638     83.67%     83.67% # attempts to use FU when none available
system.switch_cpus.iq.fu_full::IntMult              0      0.00%     83.67% # attempts to use FU when none available
system.switch_cpus.iq.fu_full::IntDiv               0      0.00%     83.67% # attempts to use FU when none available
system.switch_cpus.iq.fu_full::FloatAdd             0      0.00%     83.67% # attempts to use FU when none available
system.switch_cpus.iq.fu_full::FloatCmp             0      0.00%     83.67% # attempts to use FU when none available
system.switch_cpus.iq.fu_full::FloatCvt             0      0.00%     83.67% # attempts to use FU when none available
system.switch_cpus.iq.fu_full::FloatMult            0      0.00%     83.67% # attempts to use FU when none available
system.switch_cpus.iq.fu_full::FloatMultAcc            0      0.00%     83.67% # attempts to use FU when none available
system.switch_cpus.iq.fu_full::FloatDiv             0      0.00%     83.67% # attempts to use FU when none available
system.switch_cpus.iq.fu_full::FloatMisc            0      0.00%     83.67% # attempts to use FU when none available
system.switch_cpus.iq.fu_full::FloatSqrt            0      0.00%     83.67% # attempts to use FU when none available
system.switch_cpus.iq.fu_full::SimdAdd              0      0.00%     83.67% # attempts to use FU when none available
system.switch_cpus.iq.fu_full::SimdAddAcc            0      0.00%     83.67% # attempts to use FU when none available
system.switch_cpus.iq.fu_full::SimdAlu              0      0.00%     83.67% # attempts to use FU when none available
system.switch_cpus.iq.fu_full::SimdCmp              0      0.00%     83.67% # attempts to use FU when none available
system.switch_cpus.iq.fu_full::SimdCvt              0      0.00%     83.67% # attempts to use FU when none available
system.switch_cpus.iq.fu_full::SimdMisc             0      0.00%     83.67% # attempts to use FU when none available
system.switch_cpus.iq.fu_full::SimdMult             0      0.00%     83.67% # attempts to use FU when none available
system.switch_cpus.iq.fu_full::SimdMultAcc            0      0.00%     83.67% # attempts to use FU when none available
system.switch_cpus.iq.fu_full::SimdShift            0      0.00%     83.67% # attempts to use FU when none available
system.switch_cpus.iq.fu_full::SimdShiftAcc            0      0.00%     83.67% # attempts to use FU when none available
system.switch_cpus.iq.fu_full::SimdDiv              0      0.00%     83.67% # attempts to use FU when none available
system.switch_cpus.iq.fu_full::SimdSqrt             0      0.00%     83.67% # attempts to use FU when none available
system.switch_cpus.iq.fu_full::SimdFloatAdd            0      0.00%     83.67% # attempts to use FU when none available
system.switch_cpus.iq.fu_full::SimdFloatAlu            0      0.00%     83.67% # attempts to use FU when none available
system.switch_cpus.iq.fu_full::SimdFloatCmp            0      0.00%     83.67% # attempts to use FU when none available
system.switch_cpus.iq.fu_full::SimdFloatCvt            0      0.00%     83.67% # attempts to use FU when none available
system.switch_cpus.iq.fu_full::SimdFloatDiv            0      0.00%     83.67% # attempts to use FU when none available
system.switch_cpus.iq.fu_full::SimdFloatMisc            0      0.00%     83.67% # attempts to use FU when none available
system.switch_cpus.iq.fu_full::SimdFloatMult            0      0.00%     83.67% # attempts to use FU when none available
system.switch_cpus.iq.fu_full::SimdFloatMultAcc            0      0.00%     83.67% # attempts to use FU when none available
system.switch_cpus.iq.fu_full::SimdFloatSqrt            0      0.00%     83.67% # attempts to use FU when none available
system.switch_cpus.iq.fu_full::SimdReduceAdd            0      0.00%     83.67% # attempts to use FU when none available
system.switch_cpus.iq.fu_full::SimdReduceAlu            0      0.00%     83.67% # attempts to use FU when none available
system.switch_cpus.iq.fu_full::SimdReduceCmp            0      0.00%     83.67% # attempts to use FU when none available
system.switch_cpus.iq.fu_full::SimdFloatReduceAdd            0      0.00%     83.67% # attempts to use FU when none available
system.switch_cpus.iq.fu_full::SimdFloatReduceCmp            0      0.00%     83.67% # attempts to use FU when none available
system.switch_cpus.iq.fu_full::SimdAes              0      0.00%     83.67% # attempts to use FU when none available
system.switch_cpus.iq.fu_full::SimdAesMix            0      0.00%     83.67% # attempts to use FU when none available
system.switch_cpus.iq.fu_full::SimdSha1Hash            0      0.00%     83.67% # attempts to use FU when none available
system.switch_cpus.iq.fu_full::SimdSha1Hash2            0      0.00%     83.67% # attempts to use FU when none available
system.switch_cpus.iq.fu_full::SimdSha256Hash            0      0.00%     83.67% # attempts to use FU when none available
system.switch_cpus.iq.fu_full::SimdSha256Hash2            0      0.00%     83.67% # attempts to use FU when none available
system.switch_cpus.iq.fu_full::SimdShaSigma2            0      0.00%     83.67% # attempts to use FU when none available
system.switch_cpus.iq.fu_full::SimdShaSigma3            0      0.00%     83.67% # attempts to use FU when none available
system.switch_cpus.iq.fu_full::SimdPredAlu            0      0.00%     83.67% # attempts to use FU when none available
system.switch_cpus.iq.fu_full::MemRead          78886     16.15%     99.82% # attempts to use FU when none available
system.switch_cpus.iq.fu_full::MemWrite           225      0.05%     99.87% # attempts to use FU when none available
system.switch_cpus.iq.fu_full::FloatMemRead          623      0.13%    100.00% # attempts to use FU when none available
system.switch_cpus.iq.fu_full::FloatMemWrite           23      0.00%    100.00% # attempts to use FU when none available
system.switch_cpus.iq.fu_full::IprAccess            0      0.00%    100.00% # attempts to use FU when none available
system.switch_cpus.iq.fu_full::InstPrefetch            0      0.00%    100.00% # attempts to use FU when none available
system.switch_cpus.iq.int_alu_accesses       32974521                       # Number of integer alu accesses
system.switch_cpus.iq.int_inst_queue_reads     86017462                       # Number of integer instruction queue reads
system.switch_cpus.iq.int_inst_queue_wakeup_accesses     30227589                       # Number of integer instruction queue wakeup accesses
system.switch_cpus.iq.int_inst_queue_writes     55793860                       # Number of integer instruction queue writes
system.switch_cpus.iq.iqInstsAdded           36333421                       # Number of instructions added to the IQ (excludes non-spec)
system.switch_cpus.iq.iqInstsIssued          32651131                       # Number of instructions issued
system.switch_cpus.iq.iqSquashedInstsExamined     19508252                       # Number of squashed instructions iterated over during squash; mainly for profiling
system.switch_cpus.iq.iqSquashedInstsIssued       121381                       # Number of squashed instructions issued
system.switch_cpus.iq.iqSquashedOperandsExamined     19604200                       # Number of squashed operands that are examined and possibly removed from graph
system.switch_cpus.iq.issued_per_cycle::samples     20181774                       # Number of insts issued each cycle
system.switch_cpus.iq.issued_per_cycle::mean     1.617852                       # Number of insts issued each cycle
system.switch_cpus.iq.issued_per_cycle::stdev     2.208444                       # Number of insts issued each cycle
system.switch_cpus.iq.issued_per_cycle::underflows            0      0.00%      0.00% # Number of insts issued each cycle
system.switch_cpus.iq.issued_per_cycle::0     11325702     56.12%     56.12% # Number of insts issued each cycle
system.switch_cpus.iq.issued_per_cycle::1      1169582      5.80%     61.91% # Number of insts issued each cycle
system.switch_cpus.iq.issued_per_cycle::2      1633085      8.09%     70.01% # Number of insts issued each cycle
system.switch_cpus.iq.issued_per_cycle::3      1566709      7.76%     77.77% # Number of insts issued each cycle
system.switch_cpus.iq.issued_per_cycle::4      1571178      7.79%     85.55% # Number of insts issued each cycle
system.switch_cpus.iq.issued_per_cycle::5      1201775      5.95%     91.51% # Number of insts issued each cycle
system.switch_cpus.iq.issued_per_cycle::6       957427      4.74%     96.25% # Number of insts issued each cycle
system.switch_cpus.iq.issued_per_cycle::7       573425      2.84%     99.09% # Number of insts issued each cycle
system.switch_cpus.iq.issued_per_cycle::8       182891      0.91%    100.00% # Number of insts issued each cycle
system.switch_cpus.iq.issued_per_cycle::overflows            0      0.00%    100.00% # Number of insts issued each cycle
system.switch_cpus.iq.issued_per_cycle::min_value            0                       # Number of insts issued each cycle
system.switch_cpus.iq.issued_per_cycle::max_value            8                       # Number of insts issued each cycle
system.switch_cpus.iq.issued_per_cycle::total     20181774                       # Number of insts issued each cycle
system.switch_cpus.iq.rate                   1.617639                       # Inst issue rate
system.switch_cpus.iq.vec_alu_accesses              0                       # Number of vector alu accesses
system.switch_cpus.iq.vec_inst_queue_reads            0                       # Number of vector instruction queue reads
system.switch_cpus.iq.vec_inst_queue_wakeup_accesses            0                       # Number of vector instruction queue wakeup accesses
system.switch_cpus.iq.vec_inst_queue_writes            0                       # Number of vector instruction queue writes
system.switch_cpus.itb.rdAccesses                   0                       # TLB accesses on read requests
system.switch_cpus.itb.rdMisses                     0                       # TLB misses on read requests
system.switch_cpus.itb.wrAccesses             4675185                       # TLB accesses on write requests
system.switch_cpus.itb.wrMisses                     3                       # TLB misses on write requests
system.switch_cpus.memDep0.conflictingLoads       490152                       # Number of conflicting loads.
system.switch_cpus.memDep0.conflictingStores       580594                       # Number of conflicting stores.
system.switch_cpus.memDep0.insertedLoads      4012891                       # Number of loads inserted to the mem dependence unit.
system.switch_cpus.memDep0.insertedStores      1527137                       # Number of stores inserted to the mem dependence unit.
system.switch_cpus.misc_regfile_reads        13023094                       # number of misc regfile reads
system.switch_cpus.misc_regfile_writes              1                       # number of misc regfile writes
system.switch_cpus.numCycles                 20184438                       # number of cpu cycles simulated
system.switch_cpus.numWorkItemsCompleted            0                       # number of work items this cpu completed
system.switch_cpus.numWorkItemsStarted              0                       # number of work items this cpu started
system.switch_cpus.rename.BlockCycles         8232141                       # Number of cycles rename is blocking
system.switch_cpus.rename.CommittedMaps      20843696                       # Number of HB maps that are committed
system.switch_cpus.rename.IQFullEvents         134896                       # Number of times rename has blocked due to IQ full
system.switch_cpus.rename.IdleCycles          4373030                       # Number of cycles rename is idle
system.switch_cpus.rename.ROBFullEvents        252934                       # Number of times rename has blocked due to ROB full
system.switch_cpus.rename.RenameLookups     100288036                       # Number of register rename lookups that rename has made
system.switch_cpus.rename.RenamedInsts       40941385                       # Number of instructions processed by rename
system.switch_cpus.rename.RenamedOperands     50522362                       # Number of destination operands rename has renamed
system.switch_cpus.rename.RunCycles           6500700                       # Number of cycles rename is running
system.switch_cpus.rename.SQFullEvents            266                       # Number of times rename has blocked due to SQ full
system.switch_cpus.rename.SquashCycles         573511                       # Number of cycles rename is squashing
system.switch_cpus.rename.UnblockCycles        502387                       # Number of cycles rename is unblocking
system.switch_cpus.rename.UndoneMaps         29678439                       # Number of HB maps that are undone due to squashing
system.switch_cpus.rename.fp_rename_lookups        22976                       # Number of floating rename lookups
system.switch_cpus.rename.int_rename_lookups     57667753                       # Number of integer rename lookups
system.switch_cpus.rename.serializeStallCycles            0                       # count of cycles rename stalled for serializing inst
system.switch_cpus.rename.serializingInsts            0                       # count of serializing insts renamed
system.switch_cpus.rename.skidInsts           1732286                       # count of insts added to the skid buffer
system.switch_cpus.rename.tempSerializingInsts            0                       # count of temporary serializing insts renamed
system.switch_cpus.rob.rob_reads             52540084                       # The number of ROB reads
system.switch_cpus.rob.rob_writes            75668138                       # The number of ROB writes
system.switch_cpus.timesIdled                      31                       # Number of times that the entire CPU went into an idle state and unscheduled itself
system.tol2bus.snoop_filter.hit_multi_requests            0                       # Number of requests hitting in the snoop filter with multiple (>1) holders of the requested data.
system.tol2bus.snoop_filter.hit_multi_snoops            0                       # Number of snoops hitting in the snoop filter with multiple (>1) holders of the requested data.
system.tol2bus.snoop_filter.hit_single_requests       296560                       # Number of requests hitting in the snoop filter with a single holder of the requested data.
system.tol2bus.snoop_filter.hit_single_snoops        61798                       # Number of snoops hitting in the snoop filter with a single holder of the requested data.
system.tol2bus.snoop_filter.tot_requests       594198                       # Total number of requests made to the snoop filter.
system.tol2bus.snoop_filter.tot_snoops          61798                       # Total number of snoops made to the snoop filter.
system.membus.pwrStateResidencyTicks::UNDEFINED 926049695511500                       # Cumulative time (in ticks) in various power states
system.membus.trans_dist::ReadResp             161091                       # Transaction distribution
system.membus.trans_dist::WritebackDirty         6729                       # Transaction distribution
system.membus.trans_dist::CleanEvict           152338                       # Transaction distribution
system.membus.trans_dist::ReadExReq                85                       # Transaction distribution
system.membus.trans_dist::ReadExResp               85                       # Transaction distribution
system.membus.trans_dist::ReadSharedReq        161093                       # Transaction distribution
system.membus.pkt_count_system.l2.mem_side::system.mem_ctrls.port       481421                       # Packet count per connected master and slave (bytes)
system.membus.pkt_count_system.l2.mem_side::total       481421                       # Packet count per connected master and slave (bytes)
system.membus.pkt_count::total                 481421                       # Packet count per connected master and slave (bytes)
system.membus.pkt_size_system.l2.mem_side::system.mem_ctrls.port     10745920                       # Cumulative packet size per connected master and slave (bytes)
system.membus.pkt_size_system.l2.mem_side::total     10745920                       # Cumulative packet size per connected master and slave (bytes)
system.membus.pkt_size::total                10745920                       # Cumulative packet size per connected master and slave (bytes)
system.membus.snoops                                0                       # Total snoops (count)
system.membus.snoopTraffic                          0                       # Total snoop traffic (bytes)
system.membus.snoop_fanout::samples            161178                       # Request fanout histogram
system.membus.snoop_fanout::mean                    0                       # Request fanout histogram
system.membus.snoop_fanout::stdev                   0                       # Request fanout histogram
system.membus.snoop_fanout::underflows              0      0.00%      0.00% # Request fanout histogram
system.membus.snoop_fanout::0                  161178    100.00%    100.00% # Request fanout histogram
system.membus.snoop_fanout::1                       0      0.00%    100.00% # Request fanout histogram
system.membus.snoop_fanout::overflows               0      0.00%    100.00% # Request fanout histogram
system.membus.snoop_fanout::min_value               0                       # Request fanout histogram
system.membus.snoop_fanout::max_value               0                       # Request fanout histogram
system.membus.snoop_fanout::total              161178                       # Request fanout histogram
system.membus.reqLayer2.occupancy           378976000                       # Layer occupancy (ticks)
system.membus.reqLayer2.utilization               3.8                       # Layer utilization (%)
system.membus.respLayer1.occupancy          865442750                       # Layer occupancy (ticks)
system.membus.respLayer1.utilization              8.6                       # Layer utilization (%)
system.switch_cpus.pwrStateResidencyTicks::OFF  10092229000                       # Cumulative time (in ticks) in various power states
system.switch_cpus.dtb.walker.pwrStateResidencyTicks::UNDEFINED 926049695511500                       # Cumulative time (in ticks) in various power states
system.switch_cpus.itb.walker.pwrStateResidencyTicks::UNDEFINED 926049695511500                       # Cumulative time (in ticks) in various power states
system.tol2bus.pwrStateResidencyTicks::UNDEFINED 926049695511500                       # Cumulative time (in ticks) in various power states
system.tol2bus.trans_dist::ReadResp            297078                       # Transaction distribution
system.tol2bus.trans_dist::WritebackDirty        22996                       # Transaction distribution
system.tol2bus.trans_dist::CleanEvict          436614                       # Transaction distribution
system.tol2bus.trans_dist::ReadExReq              556                       # Transaction distribution
system.tol2bus.trans_dist::ReadExResp             556                       # Transaction distribution
system.tol2bus.trans_dist::ReadCleanReq            50                       # Transaction distribution
system.tol2bus.trans_dist::ReadSharedReq       297032                       # Transaction distribution
system.tol2bus.pkt_count_system.cpu.icache.mem_side::system.l2.cpu_side          100                       # Packet count per connected master and slave (bytes)
system.tol2bus.pkt_count_system.cpu.dcache.mem_side::system.l2.cpu_side       891732                       # Packet count per connected master and slave (bytes)
system.tol2bus.pkt_count::total                891832                       # Packet count per connected master and slave (bytes)
system.tol2bus.pkt_size_system.cpu.icache.mem_side::system.l2.cpu_side         3200                       # Cumulative packet size per connected master and slave (bytes)
system.tol2bus.pkt_size_system.cpu.dcache.mem_side::system.l2.cpu_side     20086464                       # Cumulative packet size per connected master and slave (bytes)
system.tol2bus.pkt_size::total               20089664                       # Cumulative packet size per connected master and slave (bytes)
system.tol2bus.snoops                          163050                       # Total snoops (count)
system.tol2bus.snoopTraffic                    430656                       # Total snoop traffic (bytes)
system.tol2bus.snoop_fanout::samples           460688                       # Request fanout histogram
system.tol2bus.snoop_fanout::mean            0.134143                       # Request fanout histogram
system.tol2bus.snoop_fanout::stdev           0.340806                       # Request fanout histogram
system.tol2bus.snoop_fanout::underflows             0      0.00%      0.00% # Request fanout histogram
system.tol2bus.snoop_fanout::0                 398890     86.59%     86.59% # Request fanout histogram
system.tol2bus.snoop_fanout::1                  61798     13.41%    100.00% # Request fanout histogram
system.tol2bus.snoop_fanout::2                      0      0.00%    100.00% # Request fanout histogram
system.tol2bus.snoop_fanout::3                      0      0.00%    100.00% # Request fanout histogram
system.tol2bus.snoop_fanout::4                      0      0.00%    100.00% # Request fanout histogram
system.tol2bus.snoop_fanout::overflows              0      0.00%    100.00% # Request fanout histogram
system.tol2bus.snoop_fanout::min_value              0                       # Request fanout histogram
system.tol2bus.snoop_fanout::max_value              1                       # Request fanout histogram
system.tol2bus.snoop_fanout::total             460688                       # Request fanout histogram
system.tol2bus.reqLayer0.occupancy          313364000                       # Layer occupancy (ticks)
system.tol2bus.reqLayer0.utilization              3.1                       # Layer utilization (%)
system.tol2bus.respLayer1.occupancy         446373000                       # Layer occupancy (ticks)
system.tol2bus.respLayer1.utilization             4.4                       # Layer utilization (%)
system.tol2bus.respLayer0.occupancy             72000                       # Layer occupancy (ticks)
system.tol2bus.respLayer0.utilization             0.0                       # Layer utilization (%)
system.voltage_domain.voltage                       1                       # Voltage in Volts
system.clk_domain.clock                          1000                       # Clock period in ticks
system.l2.pwrStateResidencyTicks::UNDEFINED 926049695511500                       # Cumulative time (in ticks) in various power states
system.l2.demand_hits::.switch_cpus.data       136459                       # number of demand (read+write) hits
system.l2.demand_hits::total                   136459                       # number of demand (read+write) hits
system.l2.overall_hits::.switch_cpus.data       136459                       # number of overall hits
system.l2.overall_hits::total                  136459                       # number of overall hits
system.l2.demand_misses::.cpu.inst                  2                       # number of demand (read+write) misses
system.l2.demand_misses::.cpu.data                  2                       # number of demand (read+write) misses
system.l2.demand_misses::.switch_cpus.inst           48                       # number of demand (read+write) misses
system.l2.demand_misses::.switch_cpus.data       161127                       # number of demand (read+write) misses
system.l2.demand_misses::total                 161179                       # number of demand (read+write) misses
system.l2.overall_misses::.cpu.inst                 2                       # number of overall misses
system.l2.overall_misses::.cpu.data                 2                       # number of overall misses
system.l2.overall_misses::.switch_cpus.inst           48                       # number of overall misses
system.l2.overall_misses::.switch_cpus.data       161127                       # number of overall misses
system.l2.overall_misses::total                161179                       # number of overall misses
system.l2.demand_miss_latency::.switch_cpus.inst      3818000                       # number of demand (read+write) miss cycles
system.l2.demand_miss_latency::.switch_cpus.data  14240719000                       # number of demand (read+write) miss cycles
system.l2.demand_miss_latency::total      14244537000                       # number of demand (read+write) miss cycles
system.l2.overall_miss_latency::.switch_cpus.inst      3818000                       # number of overall miss cycles
system.l2.overall_miss_latency::.switch_cpus.data  14240719000                       # number of overall miss cycles
system.l2.overall_miss_latency::total     14244537000                       # number of overall miss cycles
system.l2.demand_accesses::.cpu.inst                2                       # number of demand (read+write) accesses
system.l2.demand_accesses::.cpu.data                2                       # number of demand (read+write) accesses
system.l2.demand_accesses::.switch_cpus.inst           48                       # number of demand (read+write) accesses
system.l2.demand_accesses::.switch_cpus.data       297586                       # number of demand (read+write) accesses
system.l2.demand_accesses::total               297638                       # number of demand (read+write) accesses
system.l2.overall_accesses::.cpu.inst               2                       # number of overall (read+write) accesses
system.l2.overall_accesses::.cpu.data               2                       # number of overall (read+write) accesses
system.l2.overall_accesses::.switch_cpus.inst           48                       # number of overall (read+write) accesses
system.l2.overall_accesses::.switch_cpus.data       297586                       # number of overall (read+write) accesses
system.l2.overall_accesses::total              297638                       # number of overall (read+write) accesses
system.l2.demand_miss_rate::.cpu.inst               1                       # miss rate for demand accesses
system.l2.demand_miss_rate::.cpu.data               1                       # miss rate for demand accesses
system.l2.demand_miss_rate::.switch_cpus.inst            1                       # miss rate for demand accesses
system.l2.demand_miss_rate::.switch_cpus.data     0.541447                       # miss rate for demand accesses
system.l2.demand_miss_rate::total            0.541527                       # miss rate for demand accesses
system.l2.overall_miss_rate::.cpu.inst              1                       # miss rate for overall accesses
system.l2.overall_miss_rate::.cpu.data              1                       # miss rate for overall accesses
system.l2.overall_miss_rate::.switch_cpus.inst            1                       # miss rate for overall accesses
system.l2.overall_miss_rate::.switch_cpus.data     0.541447                       # miss rate for overall accesses
system.l2.overall_miss_rate::total           0.541527                       # miss rate for overall accesses
system.l2.demand_avg_miss_latency::.switch_cpus.inst 79541.666667                       # average overall miss latency
system.l2.demand_avg_miss_latency::.switch_cpus.data 88381.953366                       # average overall miss latency
system.l2.demand_avg_miss_latency::total 88377.127293                       # average overall miss latency
system.l2.overall_avg_miss_latency::.switch_cpus.inst 79541.666667                       # average overall miss latency
system.l2.overall_avg_miss_latency::.switch_cpus.data 88381.953366                       # average overall miss latency
system.l2.overall_avg_miss_latency::total 88377.127293                       # average overall miss latency
system.l2.blocked_cycles::no_mshrs                  0                       # number of cycles access was blocked
system.l2.blocked_cycles::no_targets                0                       # number of cycles access was blocked
system.l2.blocked::no_mshrs                         0                       # number of cycles access was blocked
system.l2.blocked::no_targets                       0                       # number of cycles access was blocked
system.l2.avg_blocked_cycles::no_mshrs            nan                       # average number of cycles each access was blocked
system.l2.avg_blocked_cycles::no_targets          nan                       # average number of cycles each access was blocked
system.l2.writebacks::.writebacks                6729                       # number of writebacks
system.l2.writebacks::total                      6729                       # number of writebacks
system.l2.demand_mshr_misses::.switch_cpus.inst           48                       # number of demand (read+write) MSHR misses
system.l2.demand_mshr_misses::.switch_cpus.data       161127                       # number of demand (read+write) MSHR misses
system.l2.demand_mshr_misses::total            161175                       # number of demand (read+write) MSHR misses
system.l2.overall_mshr_misses::.switch_cpus.inst           48                       # number of overall MSHR misses
system.l2.overall_mshr_misses::.switch_cpus.data       161127                       # number of overall MSHR misses
system.l2.overall_mshr_misses::total           161175                       # number of overall MSHR misses
system.l2.demand_mshr_miss_latency::.switch_cpus.inst      3338000                       # number of demand (read+write) MSHR miss cycles
system.l2.demand_mshr_miss_latency::.switch_cpus.data  12629479000                       # number of demand (read+write) MSHR miss cycles
system.l2.demand_mshr_miss_latency::total  12632817000                       # number of demand (read+write) MSHR miss cycles
system.l2.overall_mshr_miss_latency::.switch_cpus.inst      3338000                       # number of overall MSHR miss cycles
system.l2.overall_mshr_miss_latency::.switch_cpus.data  12629479000                       # number of overall MSHR miss cycles
system.l2.overall_mshr_miss_latency::total  12632817000                       # number of overall MSHR miss cycles
system.l2.demand_mshr_miss_rate::.switch_cpus.inst            1                       # mshr miss rate for demand accesses
system.l2.demand_mshr_miss_rate::.switch_cpus.data     0.541447                       # mshr miss rate for demand accesses
system.l2.demand_mshr_miss_rate::total       0.541514                       # mshr miss rate for demand accesses
system.l2.overall_mshr_miss_rate::.switch_cpus.inst            1                       # mshr miss rate for overall accesses
system.l2.overall_mshr_miss_rate::.switch_cpus.data     0.541447                       # mshr miss rate for overall accesses
system.l2.overall_mshr_miss_rate::total      0.541514                       # mshr miss rate for overall accesses
system.l2.demand_avg_mshr_miss_latency::.switch_cpus.inst 69541.666667                       # average overall mshr miss latency
system.l2.demand_avg_mshr_miss_latency::.switch_cpus.data 78382.139555                       # average overall mshr miss latency
system.l2.demand_avg_mshr_miss_latency::total 78379.506747                       # average overall mshr miss latency
system.l2.overall_avg_mshr_miss_latency::.switch_cpus.inst 69541.666667                       # average overall mshr miss latency
system.l2.overall_avg_mshr_miss_latency::.switch_cpus.data 78382.139555                       # average overall mshr miss latency
system.l2.overall_avg_mshr_miss_latency::total 78379.506747                       # average overall mshr miss latency
system.l2.replacements                         163050                       # number of replacements
system.l2.WritebackDirty_hits::.writebacks        16267                       # number of WritebackDirty hits
system.l2.WritebackDirty_hits::total            16267                       # number of WritebackDirty hits
system.l2.WritebackDirty_accesses::.writebacks        16267                       # number of WritebackDirty accesses(hits+misses)
system.l2.WritebackDirty_accesses::total        16267                       # number of WritebackDirty accesses(hits+misses)
system.l2.CleanEvict_mshr_misses::.writebacks        57817                       # number of CleanEvict MSHR misses
system.l2.CleanEvict_mshr_misses::total         57817                       # number of CleanEvict MSHR misses
system.l2.CleanEvict_mshr_miss_rate::.writebacks          inf                       # mshr miss rate for CleanEvict accesses
system.l2.CleanEvict_mshr_miss_rate::total          inf                       # mshr miss rate for CleanEvict accesses
system.l2.ReadExReq_hits::.switch_cpus.data          471                       # number of ReadExReq hits
system.l2.ReadExReq_hits::total                   471                       # number of ReadExReq hits
system.l2.ReadExReq_misses::.switch_cpus.data           85                       # number of ReadExReq misses
system.l2.ReadExReq_misses::total                  85                       # number of ReadExReq misses
system.l2.ReadExReq_miss_latency::.switch_cpus.data      4489500                       # number of ReadExReq miss cycles
system.l2.ReadExReq_miss_latency::total       4489500                       # number of ReadExReq miss cycles
system.l2.ReadExReq_accesses::.switch_cpus.data          556                       # number of ReadExReq accesses(hits+misses)
system.l2.ReadExReq_accesses::total               556                       # number of ReadExReq accesses(hits+misses)
system.l2.ReadExReq_miss_rate::.switch_cpus.data     0.152878                       # miss rate for ReadExReq accesses
system.l2.ReadExReq_miss_rate::total         0.152878                       # miss rate for ReadExReq accesses
system.l2.ReadExReq_avg_miss_latency::.switch_cpus.data 52817.647059                       # average ReadExReq miss latency
system.l2.ReadExReq_avg_miss_latency::total 52817.647059                       # average ReadExReq miss latency
system.l2.ReadExReq_mshr_misses::.switch_cpus.data           85                       # number of ReadExReq MSHR misses
system.l2.ReadExReq_mshr_misses::total             85                       # number of ReadExReq MSHR misses
system.l2.ReadExReq_mshr_miss_latency::.switch_cpus.data      3639500                       # number of ReadExReq MSHR miss cycles
system.l2.ReadExReq_mshr_miss_latency::total      3639500                       # number of ReadExReq MSHR miss cycles
system.l2.ReadExReq_mshr_miss_rate::.switch_cpus.data     0.152878                       # mshr miss rate for ReadExReq accesses
system.l2.ReadExReq_mshr_miss_rate::total     0.152878                       # mshr miss rate for ReadExReq accesses
system.l2.ReadExReq_avg_mshr_miss_latency::.switch_cpus.data 42817.647059                       # average ReadExReq mshr miss latency
system.l2.ReadExReq_avg_mshr_miss_latency::total 42817.647059                       # average ReadExReq mshr miss latency
system.l2.ReadCleanReq_misses::.cpu.inst            2                       # number of ReadCleanReq misses
system.l2.ReadCleanReq_misses::.switch_cpus.inst           48                       # number of ReadCleanReq misses
system.l2.ReadCleanReq_misses::total               50                       # number of ReadCleanReq misses
system.l2.ReadCleanReq_miss_latency::.switch_cpus.inst      3818000                       # number of ReadCleanReq miss cycles
system.l2.ReadCleanReq_miss_latency::total      3818000                       # number of ReadCleanReq miss cycles
system.l2.ReadCleanReq_accesses::.cpu.inst            2                       # number of ReadCleanReq accesses(hits+misses)
system.l2.ReadCleanReq_accesses::.switch_cpus.inst           48                       # number of ReadCleanReq accesses(hits+misses)
system.l2.ReadCleanReq_accesses::total             50                       # number of ReadCleanReq accesses(hits+misses)
system.l2.ReadCleanReq_miss_rate::.cpu.inst            1                       # miss rate for ReadCleanReq accesses
system.l2.ReadCleanReq_miss_rate::.switch_cpus.inst            1                       # miss rate for ReadCleanReq accesses
system.l2.ReadCleanReq_miss_rate::total             1                       # miss rate for ReadCleanReq accesses
system.l2.ReadCleanReq_avg_miss_latency::.switch_cpus.inst 79541.666667                       # average ReadCleanReq miss latency
system.l2.ReadCleanReq_avg_miss_latency::total        76360                       # average ReadCleanReq miss latency
system.l2.ReadCleanReq_mshr_misses::.switch_cpus.inst           48                       # number of ReadCleanReq MSHR misses
system.l2.ReadCleanReq_mshr_misses::total           48                       # number of ReadCleanReq MSHR misses
system.l2.ReadCleanReq_mshr_miss_latency::.switch_cpus.inst      3338000                       # number of ReadCleanReq MSHR miss cycles
system.l2.ReadCleanReq_mshr_miss_latency::total      3338000                       # number of ReadCleanReq MSHR miss cycles
system.l2.ReadCleanReq_mshr_miss_rate::.switch_cpus.inst            1                       # mshr miss rate for ReadCleanReq accesses
system.l2.ReadCleanReq_mshr_miss_rate::total     0.960000                       # mshr miss rate for ReadCleanReq accesses
system.l2.ReadCleanReq_avg_mshr_miss_latency::.switch_cpus.inst 69541.666667                       # average ReadCleanReq mshr miss latency
system.l2.ReadCleanReq_avg_mshr_miss_latency::total 69541.666667                       # average ReadCleanReq mshr miss latency
system.l2.ReadSharedReq_hits::.switch_cpus.data       135988                       # number of ReadSharedReq hits
system.l2.ReadSharedReq_hits::total            135988                       # number of ReadSharedReq hits
system.l2.ReadSharedReq_misses::.cpu.data            2                       # number of ReadSharedReq misses
system.l2.ReadSharedReq_misses::.switch_cpus.data       161042                       # number of ReadSharedReq misses
system.l2.ReadSharedReq_misses::total          161044                       # number of ReadSharedReq misses
[...]
system.cpu.icache.tags.occ_task_id_percent::1024     0.115234                       # Percentage of cache occupancy per task id
system.cpu.icache.tags.tag_accesses          30270025                       # Number of tag accesses
system.cpu.icache.tags.data_accesses         30270025                       # Number of data accesses
system.cpu.dtb.walker.pwrStateResidencyTicks::UNDEFINED 926120307189500                       # Cumulative time (in ticks) in various power states
system.cpu.interrupts.clk_domain.clock           8000                       # Clock period in ticks
system.cpu.itb_walker_cache.pwrStateResidencyTicks::UNDEFINED 926120307189500                       # Cumulative time (in ticks) in various power states
system.cpu.itb_walker_cache.blocked_cycles::no_mshrs            0                       # number of cycles access was blocked
system.cpu.itb_walker_cache.blocked_cycles::no_targets            0                       # number of cycles access was blocked
system.cpu.itb_walker_cache.blocked::no_mshrs            0                       # number of cycles access was blocked
system.cpu.itb_walker_cache.blocked::no_targets            0                       # number of cycles access was blocked
system.cpu.itb_walker_cache.avg_blocked_cycles::no_mshrs          nan                       # average number of cycles each access was blocked
system.cpu.itb_walker_cache.avg_blocked_cycles::no_targets          nan                       # average number of cycles each access was blocked
system.cpu.itb_walker_cache.replacements            0                       # number of replacements
system.cpu.itb_walker_cache.tags.pwrStateResidencyTicks::UNDEFINED 926120307189500                       # Cumulative time (in ticks) in various power states
system.cpu.itb_walker_cache.tags.tagsinuse            0                       # Cycle average of tags in use
system.cpu.itb_walker_cache.tags.total_refs            0                       # Total number of references to valid blocks.
system.cpu.itb_walker_cache.tags.sampled_refs            0                       # Sample count of references to valid blocks.
system.cpu.itb_walker_cache.tags.avg_refs          nan                       # Average number of references to valid blocks.
system.cpu.itb_walker_cache.tags.warmup_cycle            0                       # Cycle when the warmup percentage was hit.
system.cpu.itb_walker_cache.tags.tag_accesses            0                       # Number of tag accesses
system.cpu.itb_walker_cache.tags.data_accesses            0                       # Number of data accesses
system.cpu.itb.walker.pwrStateResidencyTicks::UNDEFINED 926120307189500                       # Cumulative time (in ticks) in various power states
system.cpu.dtb_walker_cache.pwrStateResidencyTicks::UNDEFINED 926120307189500                       # Cumulative time (in ticks) in various power states
system.cpu.dtb_walker_cache.blocked_cycles::no_mshrs            0                       # number of cycles access was blocked
system.cpu.dtb_walker_cache.blocked_cycles::no_targets            0                       # number of cycles access was blocked
system.cpu.dtb_walker_cache.blocked::no_mshrs            0                       # number of cycles access was blocked
system.cpu.dtb_walker_cache.blocked::no_targets            0                       # number of cycles access was blocked
system.cpu.dtb_walker_cache.avg_blocked_cycles::no_mshrs          nan                       # average number of cycles each access was blocked
system.cpu.dtb_walker_cache.avg_blocked_cycles::no_targets          nan                       # average number of cycles each access was blocked
system.cpu.dtb_walker_cache.replacements            0                       # number of replacements
system.cpu.dtb_walker_cache.tags.pwrStateResidencyTicks::UNDEFINED 926120307189500                       # Cumulative time (in ticks) in various power states
system.cpu.dtb_walker_cache.tags.tagsinuse            0                       # Cycle average of tags in use
system.cpu.dtb_walker_cache.tags.total_refs            0                       # Total number of references to valid blocks.
system.cpu.dtb_walker_cache.tags.sampled_refs            0                       # Sample count of references to valid blocks.
system.cpu.dtb_walker_cache.tags.avg_refs          nan                       # Average number of references to valid blocks.
system.cpu.dtb_walker_cache.tags.warmup_cycle            0                       # Cycle when the warmup percentage was hit.
system.cpu.dtb_walker_cache.tags.tag_accesses            0                       # Number of tag accesses
system.cpu.dtb_walker_cache.tags.data_accesses            0                       # Number of data accesses
system.cpu.dcache.pwrStateResidencyTicks::UNDEFINED 926120307189500                       # Cumulative time (in ticks) in various power states
system.cpu.dcache.demand_hits::.switch_cpus.data     12241415                       # number of demand (read+write) hits
system.cpu.dcache.demand_hits::total         12241415                       # number of demand (read+write) hits
system.cpu.dcache.overall_hits::.switch_cpus.data     12241415                       # number of overall hits
system.cpu.dcache.overall_hits::total        12241415                       # number of overall hits
system.cpu.dcache.demand_misses::.cpu.data            2                       # number of demand (read+write) misses
system.cpu.dcache.demand_misses::.switch_cpus.data      1631874                       # number of demand (read+write) misses
system.cpu.dcache.demand_misses::total        1631876                       # number of demand (read+write) misses
system.cpu.dcache.overall_misses::.cpu.data            2                       # number of overall misses
system.cpu.dcache.overall_misses::.switch_cpus.data      1631874                       # number of overall misses
system.cpu.dcache.overall_misses::total       1631876                       # number of overall misses
system.cpu.dcache.demand_miss_latency::.switch_cpus.data 115984288993                       # number of demand (read+write) miss cycles
system.cpu.dcache.demand_miss_latency::total 115984288993                       # number of demand (read+write) miss cycles
system.cpu.dcache.overall_miss_latency::.switch_cpus.data 115984288993                       # number of overall miss cycles
system.cpu.dcache.overall_miss_latency::total 115984288993                       # number of overall miss cycles
system.cpu.dcache.demand_accesses::.cpu.data            2                       # number of demand (read+write) accesses
system.cpu.dcache.demand_accesses::.switch_cpus.data     13873289                       # number of demand (read+write) accesses
system.cpu.dcache.demand_accesses::total     13873291                       # number of demand (read+write) accesses
system.cpu.dcache.overall_accesses::.cpu.data            2                       # number of overall (read+write) accesses
system.cpu.dcache.overall_accesses::.switch_cpus.data     13873289                       # number of overall (read+write) accesses
system.cpu.dcache.overall_accesses::total     13873291                       # number of overall (read+write) accesses
system.cpu.dcache.demand_miss_rate::.cpu.data            1                       # miss rate for demand accesses
system.cpu.dcache.demand_miss_rate::.switch_cpus.data     0.117627                       # miss rate for demand accesses
system.cpu.dcache.demand_miss_rate::total     0.117627                       # miss rate for demand accesses
system.cpu.dcache.overall_miss_rate::.cpu.data            1                       # miss rate for overall accesses
system.cpu.dcache.overall_miss_rate::.switch_cpus.data     0.117627                       # miss rate for overall accesses
system.cpu.dcache.overall_miss_rate::total     0.117627                       # miss rate for overall accesses
system.cpu.dcache.demand_avg_miss_latency::.switch_cpus.data 71074.291883                       # average overall miss latency
system.cpu.dcache.demand_avg_miss_latency::total 71074.204776                       # average overall miss latency
system.cpu.dcache.overall_avg_miss_latency::.switch_cpus.data 71074.291883                       # average overall miss latency
system.cpu.dcache.overall_avg_miss_latency::total 71074.204776                       # average overall miss latency
system.cpu.dcache.blocked_cycles::no_mshrs     14760357                       # number of cycles access was blocked
system.cpu.dcache.blocked_cycles::no_targets         4865                       # number of cycles access was blocked
system.cpu.dcache.blocked::no_mshrs            364035                       # number of cycles access was blocked
system.cpu.dcache.blocked::no_targets             102                       # number of cycles access was blocked
system.cpu.dcache.avg_blocked_cycles::no_mshrs    40.546533                       # average number of cycles each access was blocked
system.cpu.dcache.avg_blocked_cycles::no_targets    47.696078                       # average number of cycles each access was blocked
system.cpu.dcache.writebacks::.writebacks       528474                       # number of writebacks
system.cpu.dcache.writebacks::total            528474                       # number of writebacks
system.cpu.dcache.demand_mshr_hits::.switch_cpus.data       332778                       # number of demand (read+write) MSHR hits
system.cpu.dcache.demand_mshr_hits::total       332778                       # number of demand (read+write) MSHR hits
system.cpu.dcache.overall_mshr_hits::.switch_cpus.data       332778                       # number of overall MSHR hits
system.cpu.dcache.overall_mshr_hits::total       332778                       # number of overall MSHR hits
system.cpu.dcache.demand_mshr_misses::.switch_cpus.data      1299096                       # number of demand (read+write) MSHR misses
system.cpu.dcache.demand_mshr_misses::total      1299096                       # number of demand (read+write) MSHR misses
system.cpu.dcache.overall_mshr_misses::.switch_cpus.data      1299096                       # number of overall MSHR misses
system.cpu.dcache.overall_mshr_misses::total      1299096                       # number of overall MSHR misses
system.cpu.dcache.demand_mshr_miss_latency::.switch_cpus.data 100729760493                       # number of demand (read+write) MSHR miss cycles
system.cpu.dcache.demand_mshr_miss_latency::total 100729760493                       # number of demand (read+write) MSHR miss cycles
system.cpu.dcache.overall_mshr_miss_latency::.switch_cpus.data 100729760493                       # number of overall MSHR miss cycles
system.cpu.dcache.overall_mshr_miss_latency::total 100729760493                       # number of overall MSHR miss cycles
system.cpu.dcache.demand_mshr_miss_rate::.switch_cpus.data     0.093640                       # mshr miss rate for demand accesses
system.cpu.dcache.demand_mshr_miss_rate::total     0.093640                       # mshr miss rate for demand accesses
system.cpu.dcache.overall_mshr_miss_rate::.switch_cpus.data     0.093640                       # mshr miss rate for overall accesses
system.cpu.dcache.overall_mshr_miss_rate::total     0.093640                       # mshr miss rate for overall accesses
system.cpu.dcache.demand_avg_mshr_miss_latency::.switch_cpus.data 77538.350124                       # average overall mshr miss latency
system.cpu.dcache.demand_avg_mshr_miss_latency::total 77538.350124                       # average overall mshr miss latency
system.cpu.dcache.overall_avg_mshr_miss_latency::.switch_cpus.data 77538.350124                       # average overall mshr miss latency
system.cpu.dcache.overall_avg_mshr_miss_latency::total 77538.350124                       # average overall mshr miss latency
system.cpu.dcache.replacements                1298074                       # number of replacements
system.cpu.dcache.ReadReq_hits::.switch_cpus.data     10240824                       # number of ReadReq hits
system.cpu.dcache.ReadReq_hits::total        10240824                       # number of ReadReq hits
system.cpu.dcache.ReadReq_misses::.cpu.data            2                       # number of ReadReq misses
system.cpu.dcache.ReadReq_misses::.switch_cpus.data      1146736                       # number of ReadReq misses
system.cpu.dcache.ReadReq_misses::total       1146738                       # number of ReadReq misses
system.cpu.dcache.ReadReq_miss_latency::.switch_cpus.data  68861213000                       # number of ReadReq miss cycles
system.cpu.dcache.ReadReq_miss_latency::total  68861213000                       # number of ReadReq miss cycles
system.cpu.dcache.ReadReq_accesses::.cpu.data            2                       # number of ReadReq accesses(hits+misses)
system.cpu.dcache.ReadReq_accesses::.switch_cpus.data     11387560                       # number of ReadReq accesses(hits+misses)
system.cpu.dcache.ReadReq_accesses::total     11387562                       # number of ReadReq accesses(hits+misses)
system.cpu.dcache.ReadReq_miss_rate::.cpu.data            1                       # miss rate for ReadReq accesses
system.cpu.dcache.ReadReq_miss_rate::.switch_cpus.data     0.100701                       # miss rate for ReadReq accesses
system.cpu.dcache.ReadReq_miss_rate::total     0.100701                       # miss rate for ReadReq accesses
system.cpu.dcache.ReadReq_avg_miss_latency::.switch_cpus.data 60049.752515                       # average ReadReq miss latency
system.cpu.dcache.ReadReq_avg_miss_latency::total 60049.647784                       # average ReadReq miss latency
system.cpu.dcache.ReadReq_mshr_hits::.switch_cpus.data       332772                       # number of ReadReq MSHR hits
system.cpu.dcache.ReadReq_mshr_hits::total       332772                       # number of ReadReq MSHR hits
system.cpu.dcache.ReadReq_mshr_misses::.switch_cpus.data       813964                       # number of ReadReq MSHR misses
system.cpu.dcache.ReadReq_mshr_misses::total       813964                       # number of ReadReq MSHR misses
system.cpu.dcache.ReadReq_mshr_miss_latency::.switch_cpus.data  54091897000                       # number of ReadReq MSHR miss cycles
system.cpu.dcache.ReadReq_mshr_miss_latency::total  54091897000                       # number of ReadReq MSHR miss cycles
system.cpu.dcache.ReadReq_mshr_miss_rate::.switch_cpus.data     0.071478                       # mshr miss rate for ReadReq accesses
system.cpu.dcache.ReadReq_mshr_miss_rate::total     0.071478                       # mshr miss rate for ReadReq accesses
system.cpu.dcache.ReadReq_avg_mshr_miss_latency::.switch_cpus.data 66454.900954                       # average ReadReq mshr miss latency
system.cpu.dcache.ReadReq_avg_mshr_miss_latency::total 66454.900954                       # average ReadReq mshr miss latency
system.cpu.dcache.WriteReq_hits::.switch_cpus.data      2000591                       # number of WriteReq hits
system.cpu.dcache.WriteReq_hits::total        2000591                       # number of WriteReq hits
system.cpu.dcache.WriteReq_misses::.switch_cpus.data       485138                       # number of WriteReq misses
system.cpu.dcache.WriteReq_misses::total       485138                       # number of WriteReq misses
system.cpu.dcache.WriteReq_miss_latency::.switch_cpus.data  47123075993                       # number of WriteReq miss cycles
system.cpu.dcache.WriteReq_miss_latency::total  47123075993                       # number of WriteReq miss cycles
system.cpu.dcache.WriteReq_accesses::.switch_cpus.data      2485729                       # number of WriteReq accesses(hits+misses)
system.cpu.dcache.WriteReq_accesses::total      2485729                       # number of WriteReq accesses(hits+misses)
system.cpu.dcache.WriteReq_miss_rate::.switch_cpus.data     0.195169                       # miss rate for WriteReq accesses
system.cpu.dcache.WriteReq_miss_rate::total     0.195169                       # miss rate for WriteReq accesses
system.cpu.dcache.WriteReq_avg_miss_latency::.switch_cpus.data 97133.343488                       # average WriteReq miss latency
system.cpu.dcache.WriteReq_avg_miss_latency::total 97133.343488                       # average WriteReq miss latency
system.cpu.dcache.WriteReq_mshr_hits::.switch_cpus.data            6                       # number of WriteReq MSHR hits
system.cpu.dcache.WriteReq_mshr_hits::total            6                       # number of WriteReq MSHR hits
system.cpu.dcache.WriteReq_mshr_misses::.switch_cpus.data       485132                       # number of WriteReq MSHR misses
system.cpu.dcache.WriteReq_mshr_misses::total       485132                       # number of WriteReq MSHR misses
system.cpu.dcache.WriteReq_mshr_miss_latency::.switch_cpus.data  46637863493                       # number of WriteReq MSHR miss cycles
system.cpu.dcache.WriteReq_mshr_miss_latency::total  46637863493                       # number of WriteReq MSHR miss cycles
system.cpu.dcache.WriteReq_mshr_miss_rate::.switch_cpus.data     0.195167                       # mshr miss rate for WriteReq accesses
system.cpu.dcache.WriteReq_mshr_miss_rate::total     0.195167                       # mshr miss rate for WriteReq accesses
system.cpu.dcache.WriteReq_avg_mshr_miss_latency::.switch_cpus.data 96134.378876                       # average WriteReq mshr miss latency
system.cpu.dcache.WriteReq_avg_mshr_miss_latency::total 96134.378876                       # average WriteReq mshr miss latency
system.cpu.dcache.tags.pwrStateResidencyTicks::UNDEFINED 926120307189500                       # Cumulative time (in ticks) in various power states
system.cpu.dcache.tags.tagsinuse             0.089187                       # Cycle average of tags in use
system.cpu.dcache.tags.total_refs            13540513                       # Total number of references to valid blocks.
system.cpu.dcache.tags.sampled_refs           1299098                       # Sample count of references to valid blocks.
system.cpu.dcache.tags.avg_refs             10.423011                       # Average number of references to valid blocks.
system.cpu.dcache.tags.warmup_cycle      926039603283000                       # Cycle when the warmup percentage was hit.
system.cpu.dcache.tags.occ_blocks::.cpu.data     0.000000                       # Average occupied blocks per requestor
system.cpu.dcache.tags.occ_blocks::.switch_cpus.data     0.089187                       # Average occupied blocks per requestor
system.cpu.dcache.tags.occ_percent::.cpu.data     0.000000                       # Average percentage of cache occupancy
system.cpu.dcache.tags.occ_percent::.switch_cpus.data     0.000087                       # Average percentage of cache occupancy
system.cpu.dcache.tags.occ_percent::total     0.000087                       # Average percentage of cache occupancy
system.cpu.dcache.tags.occ_task_id_blocks::1024         1024                       # Occupied blocks per task id
system.cpu.dcache.tags.age_task_id_blocks_1024::0          121                       # Occupied blocks per task id
system.cpu.dcache.tags.age_task_id_blocks_1024::1          722                       # Occupied blocks per task id
system.cpu.dcache.tags.age_task_id_blocks_1024::2          177                       # Occupied blocks per task id
system.cpu.dcache.tags.age_task_id_blocks_1024::3            4                       # Occupied blocks per task id
system.cpu.dcache.tags.occ_task_id_percent::1024            1                       # Percentage of cache occupancy per task id
system.cpu.dcache.tags.tag_accesses          29045680                       # Number of tag accesses
system.cpu.dcache.tags.data_accesses         29045680                       # Number of data accesses

---------- End Simulation Statistics   ----------
