
---------- Begin Simulation Statistics ----------
final_tick                               359104252503500                       # Number of ticks from beginning of simulation (restored from checkpoints and never reset)
host_inst_rate                                  46749                       # Simulator instruction rate (inst/s)
host_mem_usage                                 805876                       # Number of bytes of host memory used
host_op_rate                                    78894                       # Simulator op (including micro ops) rate (op/s)
host_seconds                                   213.91                       # Real time elapsed on the host
host_tick_rate                               45554884                       # Simulator tick rate (ticks/s)
sim_freq                                 1000000000000                       # Frequency of simulated ticks
sim_insts                                    10000009                       # Number of instructions simulated
sim_ops                                      16876344                       # Number of ops (including micro ops) simulated
sim_seconds                                  0.009745                       # Number of seconds simulated
sim_ticks                                  9744663500                       # Number of ticks simulated
system.cpu.Branches                                 1                       # Number of branches fetched
system.cpu.committedInsts                           8                       # Number of instructions committed
system.cpu.committedOps                            16                       # Number of ops (including micro ops) committed
system.cpu.dtb.rdAccesses                           4                       # TLB accesses on read requests
system.cpu.dtb.rdMisses                             0                       # TLB misses on read requests
system.cpu.dtb.wrAccesses                           0                       # TLB accesses on write requests
system.cpu.dtb.wrMisses                             0                       # TLB misses on write requests
system.cpu.idle_fraction                            0                       # Percentage of idle cycles
system.cpu.itb.rdAccesses                           0                       # TLB accesses on read requests
system.cpu.itb.rdMisses                             0                       # TLB misses on read requests
system.cpu.itb.wrAccesses                          12                       # TLB accesses on write requests
system.cpu.itb.wrMisses                             0                       # TLB misses on write requests
system.cpu.not_idle_fraction                        1                       # Percentage of non-idle cycles
system.cpu.numCycles                               20                       # number of cpu cycles simulated
system.cpu.numWorkItemsCompleted                    0                       # number of work items this cpu completed
system.cpu.numWorkItemsStarted                      0                       # number of work items this cpu started
system.cpu.num_busy_cycles                         20                       # Number of busy cycles
system.cpu.num_cc_register_reads                    5                       # number of times the CC registers were read
system.cpu.num_conditional_control_insts            1                       # number of instructions that are conditional controls
system.cpu.num_fp_alu_accesses                     13                       # Number of float alu accesses
system.cpu.num_fp_insts                            13                       # number of float instructions
system.cpu.num_fp_register_reads                   20                       # number of times the floating registers were read
system.cpu.num_fp_register_writes                  13                       # number of times the floating registers were written
system.cpu.num_func_calls                           0                       # number of times a function call or return occured
system.cpu.num_idle_cycles                          0                       # Number of idle cycles
system.cpu.num_int_alu_accesses                     6                       # Number of integer alu accesses
system.cpu.num_int_insts                            6                       # number of integer instructions
system.cpu.num_int_register_reads                  13                       # number of times the integer registers were read
system.cpu.num_int_register_writes                  2                       # number of times the integer registers were written
system.cpu.num_load_insts                           3                       # Number of load instructions
system.cpu.num_mem_refs                             3                       # number of memory refs
system.cpu.num_store_insts                          0                       # Number of store instructions
system.cpu.num_vec_alu_accesses                     0                       # Number of vector alu accesses
system.cpu.num_vec_insts                            0                       # number of vector instructions
system.cpu.num_vec_register_reads                   0                       # number of times the vector registers were read
system.cpu.num_vec_register_writes                  0                       # number of times the vector registers were written
system.cpu.op_class::No_OpClass                     0      0.00%      0.00% # Class of executed instruction
system.cpu.op_class::IntAlu                         5     31.25%     31.25% # Class of executed instruction
system.cpu.op_class::IntMult                        0      0.00%     31.25% # Class of executed instruction
system.cpu.op_class::IntDiv                         0      0.00%     31.25% # Class of executed instruction
system.cpu.op_class::FloatAdd                       2     12.50%     43.75% # Class of executed instruction
system.cpu.op_class::FloatCmp                       0      0.00%     43.75% # Class of executed instruction
system.cpu.op_class::FloatCvt                       0      0.00%     43.75% # Class of executed instruction
system.cpu.op_class::FloatMult                      0      0.00%     43.75% # Class of executed instruction
system.cpu.op_class::FloatMultAcc                   0      0.00%     43.75% # Class of executed instruction
system.cpu.op_class::FloatDiv                       0      0.00%     43.75% # Class of executed instruction
system.cpu.op_class::FloatMisc                      0      0.00%     43.75% # Class of executed instruction
system.cpu.op_class::FloatSqrt                      0      0.00%     43.75% # Class of executed instruction
system.cpu.op_class::SimdAdd                        0      0.00%     43.75% # Class of executed instruction
system.cpu.op_class::SimdAddAcc                     0      0.00%     43.75% # Class of executed instruction
system.cpu.op_class::SimdAlu                        2     12.50%     56.25% # Class of executed instruction
system.cpu.op_class::SimdCmp                        0      0.00%     56.25% # Class of executed instruction
system.cpu.op_class::SimdCvt                        0      0.00%     56.25% # Class of executed instruction
system.cpu.op_class::SimdMisc                       0      0.00%     56.25% # Class of executed instruction
system.cpu.op_class::SimdMult                       0      0.00%     56.25% # Class of executed instruction
system.cpu.op_class::SimdMultAcc                    0      0.00%     56.25% # Class of executed instruction
system.cpu.op_class::SimdShift                      0      0.00%     56.25% # Class of executed instruction
system.cpu.op_class::SimdShiftAcc                   0      0.00%     56.25% # Class of executed instruction
system.cpu.op_class::SimdDiv                        0      0.00%     56.25% # Class of executed instruction
system.cpu.op_class::SimdSqrt                       0      0.00%     56.25% # Class of executed instruction
system.cpu.op_class::SimdFloatAdd                   3     18.75%     75.00% # Class of executed instruction
system.cpu.op_class::SimdFloatAlu                   0      0.00%     75.00% # Class of executed instruction
system.cpu.op_class::SimdFloatCmp                   0      0.00%     75.00% # Class of executed instruction
system.cpu.op_class::SimdFloatCvt                   0      0.00%     75.00% # Class of executed instruction
system.cpu.op_class::SimdFloatDiv                   0      0.00%     75.00% # Class of executed instruction
system.cpu.op_class::SimdFloatMisc                  0      0.00%     75.00% # Class of executed instruction
system.cpu.op_class::SimdFloatMult                  1      6.25%     81.25% # Class of executed instruction
system.cpu.op_class::SimdFloatMultAcc               0      0.00%     81.25% # Class of executed instruction
system.cpu.op_class::SimdFloatSqrt                  0      0.00%     81.25% # Class of executed instruction
system.cpu.op_class::SimdReduceAdd                  0      0.00%     81.25% # Class of executed instruction
system.cpu.op_class::SimdReduceAlu                  0      0.00%     81.25% # Class of executed instruction
system.cpu.op_class::SimdReduceCmp                  0      0.00%     81.25% # Class of executed instruction
system.cpu.op_class::SimdFloatReduceAdd             0      0.00%     81.25% # Class of executed instruction
system.cpu.op_class::SimdFloatReduceCmp             0      0.00%     81.25% # Class of executed instruction
system.cpu.op_class::SimdAes                        0      0.00%     81.25% # Class of executed instruction
system.cpu.op_class::SimdAesMix                     0      0.00%     81.25% # Class of executed instruction
system.cpu.op_class::SimdSha1Hash                   0      0.00%     81.25% # Class of executed instruction
system.cpu.op_class::SimdSha1Hash2                  0      0.00%     81.25% # Class of executed instruction
system.cpu.op_class::SimdSha256Hash                 0      0.00%     81.25% # Class of executed instruction
system.cpu.op_class::SimdSha256Hash2                0      0.00%     81.25% # Class of executed instruction
system.cpu.op_class::SimdShaSigma2                  0      0.00%     81.25% # Class of executed instruction
system.cpu.op_class::SimdShaSigma3                  0      0.00%     81.25% # Class of executed instruction
system.cpu.op_class::SimdPredAlu                    0      0.00%     81.25% # Class of executed instruction
system.cpu.op_class::MemRead                        0      0.00%     81.25% # Class of executed instruction
system.cpu.op_class::MemWrite                       0      0.00%     81.25% # Class of executed instruction
system.cpu.op_class::FloatMemRead                   3     18.75%    100.00% # Class of executed instruction
system.cpu.op_class::FloatMemWrite                  0      0.00%    100.00% # Class of executed instruction
system.cpu.op_class::IprAccess                      0      0.00%    100.00% # Class of executed instruction
system.cpu.op_class::InstPrefetch                   0      0.00%    100.00% # Class of executed instruction
system.cpu.op_class::total                         16                       # Class of executed instruction
system.cpu.workload.numSyscalls                     0                       # Number of system calls
system.membus.snoop_filter.hit_multi_requests            0                       # Number of requests hitting in the snoop filter with multiple (>1) holders of the requested data.
system.membus.snoop_filter.hit_multi_snoops            0                       # Number of snoops hitting in the snoop filter with multiple (>1) holders of the requested data.
system.membus.snoop_filter.hit_single_requests       179078                       # Number of requests hitting in the snoop filter with a single holder of the requested data.
system.membus.snoop_filter.hit_single_snoops            0                       # Number of snoops hitting in the snoop filter with a single holder of the requested data.
system.membus.snoop_filter.tot_requests        363127                       # Total number of requests made to the snoop filter.
system.membus.snoop_filter.tot_snoops               0                       # Total number of snoops made to the snoop filter.
system.switch_cpus.branchPred.BTBCorrect            0                       # Number of correct BTB predictions (this stat may not work properly.
system.switch_cpus.branchPred.BTBHitPct      0.000000                       # BTB Hit Percentage
system.switch_cpus.branchPred.BTBHits               0                       # Number of BTB hits
system.switch_cpus.branchPred.BTBLookups      1370823                       # Number of BTB lookups
system.switch_cpus.branchPred.RASInCorrect           41                       # Number of incorrect RAS predictions.
system.switch_cpus.branchPred.condIncorrect        76970                       # Number of conditional branches incorrect
system.switch_cpus.branchPred.condPredicted      1406295                       # Number of conditional branches predicted
system.switch_cpus.branchPred.indirectHits      1019925                       # Number of indirect target hits.
system.switch_cpus.branchPred.indirectLookups      1370823                       # Number of indirect predictor lookups.
system.switch_cpus.branchPred.indirectMisses       350898                       # Number of indirect misses.
system.switch_cpus.branchPred.lookups         1506833                       # Number of BP lookups
system.switch_cpus.branchPred.usedRAS           48738                       # Number of times the RAS was used to get a target.
system.switch_cpus.branchPredindirectMispredicted        19967                       # Number of mispredicted indirect branches.
system.switch_cpus.cc_regfile_reads           6488912                       # number of cc regfile reads
system.switch_cpus.cc_regfile_writes          4462055                       # number of cc regfile writes
system.switch_cpus.commit.amos                      0                       # Number of atomic instructions committed
system.switch_cpus.commit.branchMispredicts        77048                       # The number of times a branch was mispredicted
system.switch_cpus.commit.branches            1049066                       # Number of branches committed
system.switch_cpus.commit.bw_lim_events       1445440                       # number cycles where commit BW limit reached
system.switch_cpus.commit.commitSquashedInsts      3099249                       # The number of squashed insts skipped by commit
system.switch_cpus.commit.committedInsts     10000001                       # Number of instructions committed
system.switch_cpus.commit.committedOps       16876328                       # Number of ops (including micro ops) committed
system.switch_cpus.commit.committed_per_cycle::samples     18996628                       # Number of insts commited each cycle
system.switch_cpus.commit.committed_per_cycle::mean     0.888385                       # Number of insts commited each cycle
system.switch_cpus.commit.committed_per_cycle::stdev     2.272223                       # Number of insts commited each cycle
system.switch_cpus.commit.committed_per_cycle::underflows            0      0.00%      0.00% # Number of insts commited each cycle
system.switch_cpus.commit.committed_per_cycle::0     15571445     81.97%     81.97% # Number of insts commited each cycle
system.switch_cpus.commit.committed_per_cycle::1       881672      4.64%     86.61% # Number of insts commited each cycle
system.switch_cpus.commit.committed_per_cycle::2       139325      0.73%     87.34% # Number of insts commited each cycle
system.switch_cpus.commit.committed_per_cycle::3       219283      1.15%     88.50% # Number of insts commited each cycle
system.switch_cpus.commit.committed_per_cycle::4       391989      2.06%     90.56% # Number of insts commited each cycle
system.switch_cpus.commit.committed_per_cycle::5       213371      1.12%     91.69% # Number of insts commited each cycle
system.switch_cpus.commit.committed_per_cycle::6        78895      0.42%     92.10% # Number of insts commited each cycle
system.switch_cpus.commit.committed_per_cycle::7        55208      0.29%     92.39% # Number of insts commited each cycle
system.switch_cpus.commit.committed_per_cycle::8      1445440      7.61%    100.00% # Number of insts commited each cycle
system.switch_cpus.commit.committed_per_cycle::overflows            0      0.00%    100.00% # Number of insts commited each cycle
system.switch_cpus.commit.committed_per_cycle::min_value            0                       # Number of insts commited each cycle
system.switch_cpus.commit.committed_per_cycle::max_value            8                       # Number of insts commited each cycle
system.switch_cpus.commit.committed_per_cycle::total     18996628                       # Number of insts commited each cycle
system.switch_cpus.commit.fp_insts            8713194                       # Number of committed floating point instructions.
system.switch_cpus.commit.function_calls        26226                       # Number of function calls committed.
system.switch_cpus.commit.int_insts          10019631                       # Number of committed integer instructions.
system.switch_cpus.commit.loads               2743170                       # Number of loads committed
system.switch_cpus.commit.membars                   0                       # Number of memory barriers committed
system.switch_cpus.commit.op_class_0::No_OpClass        27517      0.16%      0.16% # Class of committed instruction
system.switch_cpus.commit.op_class_0::IntAlu      7410720     43.91%     44.07% # Class of committed instruction
system.switch_cpus.commit.op_class_0::IntMult          119      0.00%     44.08% # Class of committed instruction
system.switch_cpus.commit.op_class_0::IntDiv           56      0.00%     44.08% # Class of committed instruction
system.switch_cpus.commit.op_class_0::FloatAdd       891416      5.28%     49.36% # Class of committed instruction
system.switch_cpus.commit.op_class_0::FloatCmp            0      0.00%     49.36% # Class of committed instruction
system.switch_cpus.commit.op_class_0::FloatCvt            0      0.00%     49.36% # Class of committed instruction
system.switch_cpus.commit.op_class_0::FloatMult            0      0.00%     49.36% # Class of committed instruction
system.switch_cpus.commit.op_class_0::FloatMultAcc            0      0.00%     49.36% # Class of committed instruction
system.switch_cpus.commit.op_class_0::FloatDiv            0      0.00%     49.36% # Class of committed instruction
system.switch_cpus.commit.op_class_0::FloatMisc            0      0.00%     49.36% # Class of committed instruction
system.switch_cpus.commit.op_class_0::FloatSqrt            0      0.00%     49.36% # Class of committed instruction
system.switch_cpus.commit.op_class_0::SimdAdd            0      0.00%     49.36% # Class of committed instruction
system.switch_cpus.commit.op_class_0::SimdAddAcc            0      0.00%     49.36% # Class of committed instruction
system.switch_cpus.commit.op_class_0::SimdAlu      1379320      8.17%     57.53% # Class of committed instruction
system.switch_cpus.commit.op_class_0::SimdCmp            0      0.00%     57.53% # Class of committed instruction
system.switch_cpus.commit.op_class_0::SimdCvt            4      0.00%     57.53% # Class of committed instruction
system.switch_cpus.commit.op_class_0::SimdMisc        34436      0.20%     57.74% # Class of committed instruction
system.switch_cpus.commit.op_class_0::SimdMult            0      0.00%     57.74% # Class of committed instruction
system.switch_cpus.commit.op_class_0::SimdMultAcc            0      0.00%     57.74% # Class of committed instruction
system.switch_cpus.commit.op_class_0::SimdShift            0      0.00%     57.74% # Class of committed instruction
system.switch_cpus.commit.op_class_0::SimdShiftAcc            0      0.00%     57.74% # Class of committed instruction
system.switch_cpus.commit.op_class_0::SimdDiv            0      0.00%     57.74% # Class of committed instruction
system.switch_cpus.commit.op_class_0::SimdSqrt            0      0.00%     57.74% # Class of committed instruction
system.switch_cpus.commit.op_class_0::SimdFloatAdd      1310530      7.77%     65.50% # Class of committed instruction
system.switch_cpus.commit.op_class_0::SimdFloatAlu            0      0.00%     65.50% # Class of committed instruction
system.switch_cpus.commit.op_class_0::SimdFloatCmp        15450      0.09%     65.59% # Class of committed instruction
system.switch_cpus.commit.op_class_0::SimdFloatCvt      1398264      8.29%     73.88% # Class of committed instruction
system.switch_cpus.commit.op_class_0::SimdFloatDiv            0      0.00%     73.88% # Class of committed instruction
system.switch_cpus.commit.op_class_0::SimdFloatMisc            0      0.00%     73.88% # Class of committed instruction
system.switch_cpus.commit.op_class_0::SimdFloatMult      1344926      7.97%     81.85% # Class of committed instruction
system.switch_cpus.commit.op_class_0::SimdFloatMultAcc            0      0.00%     81.85% # Class of committed instruction
system.switch_cpus.commit.op_class_0::SimdFloatSqrt            0      0.00%     81.85% # Class of committed instruction
system.switch_cpus.commit.op_class_0::SimdReduceAdd            0      0.00%     81.85% # Class of committed instruction
system.switch_cpus.commit.op_class_0::SimdReduceAlu            0      0.00%     81.85% # Class of committed instruction
system.switch_cpus.commit.op_class_0::SimdReduceCmp            0      0.00%     81.85% # Class of committed instruction
system.switch_cpus.commit.op_class_0::SimdFloatReduceAdd            0      0.00%     81.85% # Class of committed instruction
system.switch_cpus.commit.op_class_0::SimdFloatReduceCmp            0      0.00%     81.85% # Class of committed instruction
system.switch_cpus.commit.op_class_0::SimdAes            0      0.00%     81.85% # Class of committed instruction
system.switch_cpus.commit.op_class_0::SimdAesMix            0      0.00%     81.85% # Class of committed instruction
system.switch_cpus.commit.op_class_0::SimdSha1Hash            0      0.00%     81.85% # Class of committed instruction
system.switch_cpus.commit.op_class_0::SimdSha1Hash2            0      0.00%     81.85% # Class of committed instruction
system.switch_cpus.commit.op_class_0::SimdSha256Hash            0      0.00%     81.85% # Class of committed instruction
system.switch_cpus.commit.op_class_0::SimdSha256Hash2            0      0.00%     81.85% # Class of committed instruction
system.switch_cpus.commit.op_class_0::SimdShaSigma2            0      0.00%     81.85% # Class of committed instruction
system.switch_cpus.commit.op_class_0::SimdShaSigma3            0      0.00%     81.85% # Class of committed instruction
system.switch_cpus.commit.op_class_0::SimdPredAlu            0      0.00%     81.85% # Class of committed instruction
system.switch_cpus.commit.op_class_0::MemRead       937733      5.56%     87.40% # Class of committed instruction
system.switch_cpus.commit.op_class_0::MemWrite       275299      1.63%     89.03% # Class of committed instruction
system.switch_cpus.commit.op_class_0::FloatMemRead      1805437     10.70%     99.73% # Class of committed instruction
system.switch_cpus.commit.op_class_0::FloatMemWrite        45101      0.27%    100.00% # Class of committed instruction
system.switch_cpus.commit.op_class_0::IprAccess            0      0.00%    100.00% # Class of committed instruction
system.switch_cpus.commit.op_class_0::InstPrefetch            0      0.00%    100.00% # Class of committed instruction
system.switch_cpus.commit.op_class_0::total     16876328                       # Class of committed instruction
system.switch_cpus.commit.refs                3063570                       # Number of memory references committed
system.switch_cpus.commit.swp_count                 0                       # Number of s/w prefetches committed
system.switch_cpus.commit.vec_insts                 0                       # Number of committed Vector instructions.
system.switch_cpus.committedInsts            10000001                       # Number of Instructions Simulated
system.switch_cpus.committedOps              16876328                       # Number of Ops (including micro ops) Simulated
system.switch_cpus.cpi                       1.948931                       # CPI: Cycles Per Instruction
system.switch_cpus.cpi_total                 1.948931                       # CPI: Total CPI of All Threads
system.switch_cpus.decode.BlockedCycles      15181534                       # Number of cycles decode is blocked
system.switch_cpus.decode.DecodedInsts       20903158                       # Number of instructions handled by decode
system.switch_cpus.decode.IdleCycles          1188609                       # Number of cycles decode is idle
system.switch_cpus.decode.RunCycles           2155613                       # Number of cycles decode is running
system.switch_cpus.decode.SquashCycles          77296                       # Number of cycles decode is squashing
system.switch_cpus.decode.UnblockCycles        829147                       # Number of cycles decode is unblocking
system.switch_cpus.dtb.rdAccesses             3224998                       # TLB accesses on read requests
system.switch_cpus.dtb.rdMisses                 15682                       # TLB misses on read requests
system.switch_cpus.dtb.wrAccesses              370220                       # TLB accesses on write requests
system.switch_cpus.dtb.wrMisses                  1293                       # TLB misses on write requests
system.switch_cpus.fetch.Branches             1506833                       # Number of branches that fetch encountered
system.switch_cpus.fetch.CacheLines           1745162                       # Number of cache lines fetched
system.switch_cpus.fetch.Cycles              17540062                       # Number of cycles fetch has run and was not squashing or blocked
system.switch_cpus.fetch.IcacheSquashes         17056                       # Number of outstanding Icache misses that were squashed
system.switch_cpus.fetch.IcacheWaitRetryStallCycles           62                       # Number of stall cycles due to full MSHR
system.switch_cpus.fetch.Insts               13120407                       # Number of instructions fetch has processed
system.switch_cpus.fetch.MiscStallCycles           73                       # Number of cycles fetch has spent waiting on interrupts, or bad addresses, or out of MSHRs
system.switch_cpus.fetch.PendingTrapStallCycles         3074                       # Number of stall cycles due to pending traps
system.switch_cpus.fetch.SquashCycles          154592                       # Number of cycles fetch has spent squashing
system.switch_cpus.fetch.branchRate          0.077316                       # Number of branch fetches per cycle
system.switch_cpus.fetch.icacheStallCycles      1811636                       # Number of cycles fetch is stalled on an Icache miss
system.switch_cpus.fetch.predictedBranches      1068663                       # Number of branches that fetch has predicted taken
system.switch_cpus.fetch.rate                0.673211                       # Number of inst fetches per cycle
system.switch_cpus.fetch.rateDist::samples     19432203                       # Number of instructions fetched each cycle (Total)
system.switch_cpus.fetch.rateDist::mean      1.144060                       # Number of instructions fetched each cycle (Total)
system.switch_cpus.fetch.rateDist::stdev     2.553653                       # Number of instructions fetched each cycle (Total)
system.switch_cpus.fetch.rateDist::underflows            0      0.00%      0.00% # Number of instructions fetched each cycle (Total)
system.switch_cpus.fetch.rateDist::0         15659290     80.58%     80.58% # Number of instructions fetched each cycle (Total)
system.switch_cpus.fetch.rateDist::1           279601      1.44%     82.02% # Number of instructions fetched each cycle (Total)
system.switch_cpus.fetch.rateDist::2           215014      1.11%     83.13% # Number of instructions fetched each cycle (Total)
system.switch_cpus.fetch.rateDist::3           226805      1.17%     84.30% # Number of instructions fetched each cycle (Total)
system.switch_cpus.fetch.rateDist::4           326158      1.68%     85.98% # Number of instructions fetched each cycle (Total)
system.switch_cpus.fetch.rateDist::5           387978      2.00%     87.97% # Number of instructions fetched each cycle (Total)
system.switch_cpus.fetch.rateDist::6           495938      2.55%     90.52% # Number of instructions fetched each cycle (Total)
system.switch_cpus.fetch.rateDist::7           109931      0.57%     91.09% # Number of instructions fetched each cycle (Total)
system.switch_cpus.fetch.rateDist::8          1731488      8.91%    100.00% # Number of instructions fetched each cycle (Total)
system.switch_cpus.fetch.rateDist::overflows            0      0.00%    100.00% # Number of instructions fetched each cycle (Total)
system.switch_cpus.fetch.rateDist::min_value            0                       # Number of instructions fetched each cycle (Total)
system.switch_cpus.fetch.rateDist::max_value            8                       # Number of instructions fetched each cycle (Total)
system.switch_cpus.fetch.rateDist::total     19432203                       # Number of instructions fetched each cycle (Total)
system.switch_cpus.fp_regfile_reads          14832613                       # number of floating regfile reads
system.switch_cpus.fp_regfile_writes          8824673                       # number of floating regfile writes
system.switch_cpus.idleCycles                   57104                       # Total number of cycles that the CPU has spent unscheduled due to idling
system.switch_cpus.iew.branchMispredicts        87076                       # Number of branch mispredicts detected at execute
system.switch_cpus.iew.exec_branches          1168163                       # Number of branches executed
system.switch_cpus.iew.exec_nop                     0                       # number of nop insts executed
system.switch_cpus.iew.exec_rate             0.974085                       # Inst execution rate
system.switch_cpus.iew.exec_refs              3695029                       # number of memory reference insts executed
system.switch_cpus.iew.exec_stores             370145                       # Number of stores executed
system.switch_cpus.iew.exec_swp                     0                       # number of swp insts executed
system.switch_cpus.iew.iewBlockCycles         7971956                       # Number of cycles IEW is blocking
system.switch_cpus.iew.iewDispLoadInsts       3314443                       # Number of dispatched load instructions
system.switch_cpus.iew.iewDispNonSpecInsts           24                       # Number of dispatched non-speculative instructions
system.switch_cpus.iew.iewDispSquashedInsts         6566                       # Number of squashed instructions skipped by dispatch
system.switch_cpus.iew.iewDispStoreInsts       433672                       # Number of dispatched store instructions
system.switch_cpus.iew.iewDispatchedInsts     19972415                       # Number of instructions dispatched to IQ
system.switch_cpus.iew.iewExecLoadInsts       3324884                       # Number of load instructions executed
system.switch_cpus.iew.iewExecSquashedInsts       140491                       # Number of squashed instructions skipped in execute
system.switch_cpus.iew.iewExecutedInsts      18984248                       # Number of executed instructions
system.switch_cpus.iew.iewIQFullEvents          84219                       # Number of times the IQ has become full, causing a stall
system.switch_cpus.iew.iewIdleCycles                0                       # Number of cycles IEW is idle
system.switch_cpus.iew.iewLSQFullEvents        649847                       # Number of times the LSQ has become full, causing a stall
system.switch_cpus.iew.iewSquashCycles          77296                       # Number of cycles IEW is squashing
system.switch_cpus.iew.iewUnblockCycles        784261                       # Number of cycles IEW is unblocking
system.switch_cpus.iew.lsq.thread0.blockedLoads            0                       # Number of blocked loads due to partial load-store forwarding
system.switch_cpus.iew.lsq.thread0.cacheBlocked        30876                       # Number of times an access to memory failed due to the cache being blocked
system.switch_cpus.iew.lsq.thread0.forwLoads        55668                       # Number of loads that had data forwarded from stores
system.switch_cpus.iew.lsq.thread0.ignoredResponses          346                       # Number of memory responses ignored because the instruction is squashed
system.switch_cpus.iew.lsq.thread0.invAddrLoads            0                       # Number of loads ignored due to an invalid address
system.switch_cpus.iew.lsq.thread0.invAddrSwpfs            0                       # Number of software prefetches ignored due to an invalid address
system.switch_cpus.iew.lsq.thread0.memOrderViolation          307                       # Number of memory ordering violations
system.switch_cpus.iew.lsq.thread0.rescheduledLoads          304                       # Number of loads that were rescheduled
system.switch_cpus.iew.lsq.thread0.squashedLoads       571254                       # Number of loads squashed
system.switch_cpus.iew.lsq.thread0.squashedStores       113272                       # Number of stores squashed
system.switch_cpus.iew.memOrderViolationEvents          307                       # Number of memory order violations
system.switch_cpus.iew.predictedNotTakenIncorrect        29917                       # Number of branches that were predicted not taken incorrectly
system.switch_cpus.iew.predictedTakenIncorrect        57159                       # Number of branches that were predicted taken incorrectly
system.switch_cpus.iew.wb_consumers          24092686                       # num instructions consuming a value
system.switch_cpus.iew.wb_count              18655684                       # cumulative count of insts written-back
system.switch_cpus.iew.wb_fanout             0.596616                       # average fanout of values written-back
system.switch_cpus.iew.wb_producers          14374087                       # num instructions producing a value
system.switch_cpus.iew.wb_rate               0.957227                       # insts written-back per cycle
system.switch_cpus.iew.wb_sent               18688884                       # cumulative count of insts sent to commit
system.switch_cpus.int_regfile_reads         17279773                       # number of integer regfile reads
system.switch_cpus.int_regfile_writes         8263834                       # number of integer regfile writes
system.switch_cpus.ipc                       0.513102                       # IPC: Instructions Per Cycle
system.switch_cpus.ipc_total                 0.513102                       # IPC: Total IPC of All Threads
system.switch_cpus.iq.FU_type_0::No_OpClass        38958      0.20%      0.20% # Type of FU issued
system.switch_cpus.iq.FU_type_0::IntAlu       8793027     45.98%     46.18% # Type of FU issued
system.switch_cpus.iq.FU_type_0::IntMult          215      0.00%     46.18% # Type of FU issued
system.switch_cpus.iq.FU_type_0::IntDiv            87      0.00%     46.18% # Type of FU issued
system.switch_cpus.iq.FU_type_0::FloatAdd       966985      5.06%     51.24% # Type of FU issued
system.switch_cpus.iq.FU_type_0::FloatCmp            0      0.00%     51.24% # Type of FU issued
system.switch_cpus.iq.FU_type_0::FloatCvt            0      0.00%     51.24% # Type of FU issued
system.switch_cpus.iq.FU_type_0::FloatMult            0      0.00%     51.24% # Type of FU issued
system.switch_cpus.iq.FU_type_0::FloatMultAcc            0      0.00%     51.24% # Type of FU issued
system.switch_cpus.iq.FU_type_0::FloatDiv            0      0.00%     51.24% # Type of FU issued
system.switch_cpus.iq.FU_type_0::FloatMisc            0      0.00%     51.24% # Type of FU issued
system.switch_cpus.iq.FU_type_0::FloatSqrt            0      0.00%     51.24% # Type of FU issued
system.switch_cpus.iq.FU_type_0::SimdAdd            0      0.00%     51.24% # Type of FU issued
system.switch_cpus.iq.FU_type_0::SimdAddAcc            0      0.00%     51.24% # Type of FU issued
system.switch_cpus.iq.FU_type_0::SimdAlu      1449207      7.58%     58.82% # Type of FU issued
system.switch_cpus.iq.FU_type_0::SimdCmp            0      0.00%     58.82% # Type of FU issued
system.switch_cpus.iq.FU_type_0::SimdCvt            8      0.00%     58.82% # Type of FU issued
system.switch_cpus.iq.FU_type_0::SimdMisc        35275      0.18%     59.00% # Type of FU issued
system.switch_cpus.iq.FU_type_0::SimdMult            0      0.00%     59.00% # Type of FU issued
system.switch_cpus.iq.FU_type_0::SimdMultAcc            0      0.00%     59.00% # Type of FU issued
system.switch_cpus.iq.FU_type_0::SimdShift            0      0.00%     59.00% # Type of FU issued
system.switch_cpus.iq.FU_type_0::SimdShiftAcc            0      0.00%     59.00% # Type of FU issued
system.switch_cpus.iq.FU_type_0::SimdDiv            0      0.00%     59.00% # Type of FU issued
system.switch_cpus.iq.FU_type_0::SimdSqrt            0      0.00%     59.00% # Type of FU issued
system.switch_cpus.iq.FU_type_0::SimdFloatAdd      1316928      6.89%     65.89% # Type of FU issued
system.switch_cpus.iq.FU_type_0::SimdFloatAlu            0      0.00%     65.89% # Type of FU issued
system.switch_cpus.iq.FU_type_0::SimdFloatCmp        15451      0.08%     65.97% # Type of FU issued
system.switch_cpus.iq.FU_type_0::SimdFloatCvt      1408871      7.37%     73.33% # Type of FU issued
system.switch_cpus.iq.FU_type_0::SimdFloatDiv            0      0.00%     73.33% # Type of FU issued
system.switch_cpus.iq.FU_type_0::SimdFloatMisc            0      0.00%     73.33% # Type of FU issued
system.switch_cpus.iq.FU_type_0::SimdFloatMult      1351985      7.07%     80.40% # Type of FU issued
system.switch_cpus.iq.FU_type_0::SimdFloatMultAcc            0      0.00%     80.40% # Type of FU issued
system.switch_cpus.iq.FU_type_0::SimdFloatSqrt            0      0.00%     80.40% # Type of FU issued
system.switch_cpus.iq.FU_type_0::SimdReduceAdd            0      0.00%     80.40% # Type of FU issued
system.switch_cpus.iq.FU_type_0::SimdReduceAlu            0      0.00%     80.40% # Type of FU issued
system.switch_cpus.iq.FU_type_0::SimdReduceCmp            0      0.00%     80.40% # Type of FU issued
system.switch_cpus.iq.FU_type_0::SimdFloatReduceAdd            0      0.00%     80.40% # Type of FU issued
system.switch_cpus.iq.FU_type_0::SimdFloatReduceCmp            0      0.00%     80.40% # Type of FU issued
system.switch_cpus.iq.FU_type_0::SimdAes            0      0.00%     80.40% # Type of FU issued
system.switch_cpus.iq.FU_type_0::SimdAesMix            0      0.00%     80.40% # Type of FU issued
system.switch_cpus.iq.FU_type_0::SimdSha1Hash            0      0.00%     80.40% # Type of FU issued
system.switch_cpus.iq.FU_type_0::SimdSha1Hash2            0      0.00%     80.40% # Type of FU issued
system.switch_cpus.iq.FU_type_0::SimdSha256Hash            0      0.00%     80.40% # Type of FU issued
system.switch_cpus.iq.FU_type_0::SimdSha256Hash2            0      0.00%     80.40% # Type of FU issued
system.switch_cpus.iq.FU_type_0::SimdShaSigma2            0      0.00%     80.40% # Type of FU issued
system.switch_cpus.iq.FU_type_0::SimdShaSigma3            0      0.00%     80.40% # Type of FU issued
system.switch_cpus.iq.FU_type_0::SimdPredAlu            0      0.00%     80.40% # Type of FU issued
system.switch_cpus.iq.FU_type_0::MemRead      1394456      7.29%     87.70% # Type of FU issued
system.switch_cpus.iq.FU_type_0::MemWrite       332208      1.74%     89.43% # Type of FU issued
system.switch_cpus.iq.FU_type_0::FloatMemRead      1975086     10.33%     99.76% # Type of FU issued
system.switch_cpus.iq.FU_type_0::FloatMemWrite        45994      0.24%    100.00% # Type of FU issued
system.switch_cpus.iq.FU_type_0::IprAccess            0      0.00%    100.00% # Type of FU issued
system.switch_cpus.iq.FU_type_0::InstPrefetch            0      0.00%    100.00% # Type of FU issued
system.switch_cpus.iq.FU_type_0::total       19124741                       # Type of FU issued
system.switch_cpus.iq.fp_alu_accesses         9277185                       # Number of floating point alu accesses
system.switch_cpus.iq.fp_inst_queue_reads     18350780                       # Number of floating instruction queue reads
system.switch_cpus.iq.fp_inst_queue_wakeup_accesses      8913489                       # Number of floating instruction queue wakeup accesses
system.switch_cpus.iq.fp_inst_queue_writes      9722677                       # Number of floating instruction queue writes
system.switch_cpus.iq.fu_busy_cnt              356572                       # FU busy when requested
system.switch_cpus.iq.fu_busy_rate           0.018645                       # FU busy rate (busy events/executed inst)
system.switch_cpus.iq.fu_full::No_OpClass            0      0.00%      0.00% # attempts to use FU when none available
system.switch_cpus.iq.fu_full::IntAlu          106900     29.98%     29.98% # attempts to use FU when none available
system.switch_cpus.iq.fu_full::IntMult              0      0.00%     29.98% # attempts to use FU when none available
system.switch_cpus.iq.fu_full::IntDiv               0      0.00%     29.98% # attempts to use FU when none available
system.switch_cpus.iq.fu_full::FloatAdd             0      0.00%     29.98% # attempts to use FU when none available
system.switch_cpus.iq.fu_full::FloatCmp             0      0.00%     29.98% # attempts to use FU when none available
system.switch_cpus.iq.fu_full::FloatCvt             0      0.00%     29.98% # attempts to use FU when none available
system.switch_cpus.iq.fu_full::FloatMult            0      0.00%     29.98% # attempts to use FU when none available
system.switch_cpus.iq.fu_full::FloatMultAcc            0      0.00%     29.98% # attempts to use FU when none available
system.switch_cpus.iq.fu_full::FloatDiv             0      0.00%     29.98% # attempts to use FU when none available
system.switch_cpus.iq.fu_full::FloatMisc            0      0.00%     29.98% # attempts to use FU when none available
system.switch_cpus.iq.fu_full::FloatSqrt            0      0.00%     29.98% # attempts to use FU when none available
system.switch_cpus.iq.fu_full::SimdAdd              0      0.00%     29.98% # attempts to use FU when none available
system.switch_cpus.iq.fu_full::SimdAddAcc            0      0.00%     29.98% # attempts to use FU when none available
system.switch_cpus.iq.fu_full::SimdAlu          62354     17.49%     47.47% # attempts to use FU when none available
system.switch_cpus.iq.fu_full::SimdCmp              0      0.00%     47.47% # attempts to use FU when none available
system.switch_cpus.iq.fu_full::SimdCvt              0      0.00%     47.47% # attempts to use FU when none available
system.switch_cpus.iq.fu_full::SimdMisc             0      0.00%     47.47% # attempts to use FU when none available
system.switch_cpus.iq.fu_full::SimdMult             0      0.00%     47.47% # attempts to use FU when none available
system.switch_cpus.iq.fu_full::SimdMultAcc            0      0.00%     47.47% # attempts to use FU when none available
system.switch_cpus.iq.fu_full::SimdShift            0      0.00%     47.47% # attempts to use FU when none available
system.switch_cpus.iq.fu_full::SimdShiftAcc            0      0.00%     47.47% # attempts to use FU when none available
system.switch_cpus.iq.fu_full::SimdDiv              0      0.00%     47.47% # attempts to use FU when none available
system.switch_cpus.iq.fu_full::SimdSqrt             0      0.00%     47.47% # attempts to use FU when none available
system.switch_cpus.iq.fu_full::SimdFloatAdd        83947     23.54%     71.01% # attempts to use FU when none available
system.switch_cpus.iq.fu_full::SimdFloatAlu            0      0.00%     71.01% # attempts to use FU when none available
system.switch_cpus.iq.fu_full::SimdFloatCmp            0      0.00%     71.01% # attempts to use FU when none available
system.switch_cpus.iq.fu_full::SimdFloatCvt        22808      6.40%     77.41% # attempts to use FU when none available
system.switch_cpus.iq.fu_full::SimdFloatDiv            0      0.00%     77.41% # attempts to use FU when none available
system.switch_cpus.iq.fu_full::SimdFloatMisc            0      0.00%     77.41% # attempts to use FU when none available
system.switch_cpus.iq.fu_full::SimdFloatMult         3152      0.88%     78.29% # attempts to use FU when none available
system.switch_cpus.iq.fu_full::SimdFloatMultAcc            0      0.00%     78.29% # attempts to use FU when none available
system.switch_cpus.iq.fu_full::SimdFloatSqrt            0      0.00%     78.29% # attempts to use FU when none available
system.switch_cpus.iq.fu_full::SimdReduceAdd            0      0.00%     78.29% # attempts to use FU when none available
system.switch_cpus.iq.fu_full::SimdReduceAlu            0      0.00%     78.29% # attempts to use FU when none available
system.switch_cpus.iq.fu_full::SimdReduceCmp            0      0.00%     78.29% # attempts to use FU when none available
system.switch_cpus.iq.fu_full::SimdFloatReduceAdd            0      0.00%     78.29% # attempts to use FU when none available
system.switch_cpus.iq.fu_full::SimdFloatReduceCmp            0      0.00%     78.29% # attempts to use FU when none available
system.switch_cpus.iq.fu_full::SimdAes              0      0.00%     78.29% # attempts to use FU when none available
system.switch_cpus.iq.fu_full::SimdAesMix            0      0.00%     78.29% # attempts to use FU when none available
system.switch_cpus.iq.fu_full::SimdSha1Hash            0      0.00%     78.29% # attempts to use FU when none available
system.switch_cpus.iq.fu_full::SimdSha1Hash2            0      0.00%     78.29% # attempts to use FU when none available
system.switch_cpus.iq.fu_full::SimdSha256Hash            0      0.00%     78.29% # attempts to use FU when none available
system.switch_cpus.iq.fu_full::SimdSha256Hash2            0      0.00%     78.29% # attempts to use FU when none available
system.switch_cpus.iq.fu_full::SimdShaSigma2            0      0.00%     78.29% # attempts to use FU when none available
system.switch_cpus.iq.fu_full::SimdShaSigma3            0      0.00%     78.29% # attempts to use FU when none available
system.switch_cpus.iq.fu_full::SimdPredAlu            0      0.00%     78.29% # attempts to use FU when none available
system.switch_cpus.iq.fu_full::MemRead          36439     10.22%     88.51% # attempts to use FU when none available
system.switch_cpus.iq.fu_full::MemWrite          5866      1.65%     90.15% # attempts to use FU when none available
system.switch_cpus.iq.fu_full::FloatMemRead        35015      9.82%     99.97% # attempts to use FU when none available
system.switch_cpus.iq.fu_full::FloatMemWrite           91      0.03%    100.00% # attempts to use FU when none available
system.switch_cpus.iq.fu_full::IprAccess            0      0.00%    100.00% # attempts to use FU when none available
system.switch_cpus.iq.fu_full::InstPrefetch            0      0.00%    100.00% # attempts to use FU when none available
system.switch_cpus.iq.int_alu_accesses       10165170                       # Number of integer alu accesses
system.switch_cpus.iq.int_inst_queue_reads     39742284                       # Number of integer instruction queue reads
system.switch_cpus.iq.int_inst_queue_wakeup_accesses      9742195                       # Number of integer instruction queue wakeup accesses
system.switch_cpus.iq.int_inst_queue_writes     13345994                       # Number of integer instruction queue writes
system.switch_cpus.iq.iqInstsAdded           19972344                       # Number of instructions added to the IQ (excludes non-spec)
system.switch_cpus.iq.iqInstsIssued          19124741                       # Number of instructions issued
system.switch_cpus.iq.iqNonSpecInstsAdded           71                       # Number of non-speculative instructions added to the IQ
system.switch_cpus.iq.iqSquashedInstsExamined      3095976                       # Number of squashed instructions iterated over during squash; mainly for profiling
system.switch_cpus.iq.iqSquashedInstsIssued        54809                       # Number of squashed instructions issued
system.switch_cpus.iq.iqSquashedNonSpecRemoved           71                       # Number of squashed non-spec instructions that were removed
system.switch_cpus.iq.iqSquashedOperandsExamined      4308848                       # Number of squashed operands that are examined and possibly removed from graph
system.switch_cpus.iq.issued_per_cycle::samples     19432203                       # Number of insts issued each cycle
system.switch_cpus.iq.issued_per_cycle::mean     0.984178                       # Number of insts issued each cycle
system.switch_cpus.iq.issued_per_cycle::stdev     1.871718                       # Number of insts issued each cycle
system.switch_cpus.iq.issued_per_cycle::underflows            0      0.00%      0.00% # Number of insts issued each cycle
system.switch_cpus.iq.issued_per_cycle::0     13562673     69.79%     69.79% # Number of insts issued each cycle
system.switch_cpus.iq.issued_per_cycle::1      1537430      7.91%     77.71% # Number of insts issued each cycle
system.switch_cpus.iq.issued_per_cycle::2      1075951      5.54%     83.24% # Number of insts issued each cycle
system.switch_cpus.iq.issued_per_cycle::3       901345      4.64%     87.88% # Number of insts issued each cycle
system.switch_cpus.iq.issued_per_cycle::4       796263      4.10%     91.98% # Number of insts issued each cycle
system.switch_cpus.iq.issued_per_cycle::5       557985      2.87%     94.85% # Number of insts issued each cycle
system.switch_cpus.iq.issued_per_cycle::6       470774      2.42%     97.27% # Number of insts issued each cycle
system.switch_cpus.iq.issued_per_cycle::7       306503      1.58%     98.85% # Number of insts issued each cycle
system.switch_cpus.iq.issued_per_cycle::8       223279      1.15%    100.00% # Number of insts issued each cycle
system.switch_cpus.iq.issued_per_cycle::overflows            0      0.00%    100.00% # Number of insts issued each cycle
system.switch_cpus.iq.issued_per_cycle::min_value            0                       # Number of insts issued each cycle
system.switch_cpus.iq.issued_per_cycle::max_value            8                       # Number of insts issued each cycle
system.switch_cpus.iq.issued_per_cycle::total     19432203                       # Number of insts issued each cycle
system.switch_cpus.iq.rate                   0.981294                       # Inst issue rate
system.switch_cpus.iq.vec_alu_accesses              0                       # Number of vector alu accesses
system.switch_cpus.iq.vec_inst_queue_reads            0                       # Number of vector instruction queue reads
system.switch_cpus.iq.vec_inst_queue_wakeup_accesses            0                       # Number of vector instruction queue wakeup accesses
system.switch_cpus.iq.vec_inst_queue_writes            0                       # Number of vector instruction queue writes
system.switch_cpus.itb.rdAccesses                   0                       # TLB accesses on read requests
system.switch_cpus.itb.rdMisses                     0                       # TLB misses on read requests
system.switch_cpus.itb.wrAccesses             1745545                       # TLB accesses on write requests
system.switch_cpus.itb.wrMisses                   422                       # TLB misses on write requests
system.switch_cpus.memDep0.conflictingLoads        60308                       # Number of conflicting loads.
system.switch_cpus.memDep0.conflictingStores        21849                       # Number of conflicting stores.
system.switch_cpus.memDep0.insertedLoads      3314443                       # Number of loads inserted to the mem dependence unit.
system.switch_cpus.memDep0.insertedStores       433672                       # Number of stores inserted to the mem dependence unit.
system.switch_cpus.misc_regfile_reads         6166721                       # number of misc regfile reads
system.switch_cpus.misc_regfile_writes              1                       # number of misc regfile writes
system.switch_cpus.numCycles                 19489307                       # number of cpu cycles simulated
system.switch_cpus.numWorkItemsCompleted            0                       # number of work items this cpu completed
system.switch_cpus.numWorkItemsStarted              0                       # number of work items this cpu started
system.switch_cpus.rename.BlockCycles        12421571                       # Number of cycles rename is blocking
system.switch_cpus.rename.CommittedMaps      19414366                       # Number of HB maps that are committed
system.switch_cpus.rename.IQFullEvents        1464002                       # Number of times rename has blocked due to IQ full
system.switch_cpus.rename.IdleCycles          1537368                       # Number of cycles rename is idle
system.switch_cpus.rename.LQFullEvents         640583                       # Number of times rename has blocked due to LQ full
system.switch_cpus.rename.ROBFullEvents        180753                       # Number of times rename has blocked due to ROB full
system.switch_cpus.rename.RenameLookups      49578684                       # Number of register rename lookups that rename has made
system.switch_cpus.rename.RenamedInsts       20535369                       # Number of instructions processed by rename
system.switch_cpus.rename.RenamedOperands     23794312                       # Number of destination operands rename has renamed
system.switch_cpus.rename.RunCycles           2576576                       # Number of cycles rename is running
system.switch_cpus.rename.SQFullEvents         460779                       # Number of times rename has blocked due to SQ full
system.switch_cpus.rename.SquashCycles          77296                       # Number of cycles rename is squashing
system.switch_cpus.rename.UnblockCycles       2819388                       # Number of cycles rename is unblocking
system.switch_cpus.rename.UndoneMaps          4379814                       # Number of HB maps that are undone due to squashing
system.switch_cpus.rename.fp_rename_lookups     15644043                       # Number of floating rename lookups
system.switch_cpus.rename.int_rename_lookups     19472020                       # Number of integer rename lookups
system.switch_cpus.rename.serializeStallCycles            0                       # count of cycles rename stalled for serializing inst
system.switch_cpus.rename.serializingInsts            0                       # count of serializing insts renamed
system.switch_cpus.rename.skidInsts           4379132                       # count of insts added to the skid buffer
system.switch_cpus.rename.tempSerializingInsts            0                       # count of temporary serializing insts renamed
system.switch_cpus.rob.rob_reads             37526765                       # The number of ROB reads
system.switch_cpus.rob.rob_writes            40387659                       # The number of ROB writes
system.switch_cpus.timesIdled                     635                       # Number of times that the entire CPU went into an idle state and unscheduled itself
system.tol2bus.snoop_filter.hit_multi_requests            0                       # Number of requests hitting in the snoop filter with multiple (>1) holders of the requested data.
system.tol2bus.snoop_filter.hit_multi_snoops            0                       # Number of snoops hitting in the snoop filter with multiple (>1) holders of the requested data.
system.tol2bus.snoop_filter.hit_single_requests       205687                       # Number of requests hitting in the snoop filter with a single holder of the requested data.
system.tol2bus.snoop_filter.hit_single_snoops       169978                       # Number of snoops hitting in the snoop filter with a single holder of the requested data.
system.tol2bus.snoop_filter.tot_requests       412864                       # Total number of requests made to the snoop filter.
system.tol2bus.snoop_filter.tot_snoops         169978                       # Total number of snoops made to the snoop filter.
system.membus.pwrStateResidencyTicks::UNDEFINED 359104252503500                       # Cumulative time (in ticks) in various power states
system.membus.trans_dist::ReadResp             175999                       # Transaction distribution
system.membus.trans_dist::WritebackDirty        14795                       # Transaction distribution
system.membus.trans_dist::CleanEvict           164283                       # Transaction distribution
system.membus.trans_dist::ReadExReq              8049                       # Transaction distribution
system.membus.trans_dist::ReadExResp             8049                       # Transaction distribution
system.membus.trans_dist::ReadSharedReq        176000                       # Transaction distribution
system.membus.pkt_count_system.l2.mem_side::system.mem_ctrls.port       547175                       # Packet count per connected master and slave (bytes)
system.membus.pkt_count_system.l2.mem_side::total       547175                       # Packet count per connected master and slave (bytes)
system.membus.pkt_count::total                 547175                       # Packet count per connected master and slave (bytes)
system.membus.pkt_size_system.l2.mem_side::system.mem_ctrls.port     12725952                       # Cumulative packet size per connected master and slave (bytes)
system.membus.pkt_size_system.l2.mem_side::total     12725952                       # Cumulative packet size per connected master and slave (bytes)
system.membus.pkt_size::total                12725952                       # Cumulative packet size per connected master and slave (bytes)
system.membus.snoops                                0                       # Total snoops (count)
system.membus.snoopTraffic                          0                       # Total snoop traffic (bytes)
system.membus.snoop_fanout::samples            184049                       # Request fanout histogram
system.membus.snoop_fanout::mean                    0                       # Request fanout histogram
system.membus.snoop_fanout::stdev                   0                       # Request fanout histogram
system.membus.snoop_fanout::underflows              0      0.00%      0.00% # Request fanout histogram
system.membus.snoop_fanout::0                  184049    100.00%    100.00% # Request fanout histogram
system.membus.snoop_fanout::1                       0      0.00%    100.00% # Request fanout histogram
system.membus.snoop_fanout::overflows               0      0.00%    100.00% # Request fanout histogram
system.membus.snoop_fanout::min_value               0                       # Request fanout histogram
system.membus.snoop_fanout::max_value               0                       # Request fanout histogram
system.membus.snoop_fanout::total              184049                       # Request fanout histogram
system.membus.reqLayer2.occupancy           461084000                       # Layer occupancy (ticks)
system.membus.reqLayer2.utilization               4.7                       # Layer utilization (%)
system.membus.respLayer1.occupancy          986375250                       # Layer occupancy (ticks)
system.membus.respLayer1.utilization             10.1                       # Layer utilization (%)
system.switch_cpus.pwrStateResidencyTicks::OFF   9744663500                       # Cumulative time (in ticks) in various power states
system.switch_cpus.dtb.walker.pwrStateResidencyTicks::UNDEFINED 359104252503500                       # Cumulative time (in ticks) in various power states
system.switch_cpus.itb.walker.pwrStateResidencyTicks::UNDEFINED 359104252503500                       # Cumulative time (in ticks) in various power states
system.tol2bus.pwrStateResidencyTicks::UNDEFINED 359104252503500                       # Cumulative time (in ticks) in various power states
system.tol2bus.trans_dist::ReadResp            197118                       # Transaction distribution
system.tol2bus.trans_dist::WritebackDirty        47531                       # Transaction distribution
system.tol2bus.trans_dist::WritebackClean          481                       # Transaction distribution
system.tol2bus.trans_dist::CleanEvict          353395                       # Transaction distribution
system.tol2bus.trans_dist::ReadExReq            10057                       # Transaction distribution
system.tol2bus.trans_dist::ReadExResp           10057                       # Transaction distribution
system.tol2bus.trans_dist::ReadCleanReq           945                       # Transaction distribution
system.tol2bus.trans_dist::ReadSharedReq       196175                       # Transaction distribution
system.tol2bus.pkt_count_system.cpu.icache.mem_side::system.l2.cpu_side         2371                       # Packet count per connected master and slave (bytes)
system.tol2bus.pkt_count_system.cpu.dcache.mem_side::system.l2.cpu_side       617668                       # Packet count per connected master and slave (bytes)
system.tol2bus.pkt_count::total                620039                       # Packet count per connected master and slave (bytes)
system.tol2bus.pkt_size_system.cpu.icache.mem_side::system.l2.cpu_side        91264                       # Cumulative packet size per connected master and slave (bytes)
system.tol2bus.pkt_size_system.cpu.dcache.mem_side::system.l2.cpu_side     15293824                       # Cumulative packet size per connected master and slave (bytes)
system.tol2bus.pkt_size::total               15385088                       # Cumulative packet size per connected master and slave (bytes)
system.tol2bus.snoops                          195720                       # Total snoops (count)
system.tol2bus.snoopTraffic                    946880                       # Total snoop traffic (bytes)
system.tol2bus.snoop_fanout::samples           402897                       # Request fanout histogram
system.tol2bus.snoop_fanout::mean            0.421889                       # Request fanout histogram
system.tol2bus.snoop_fanout::stdev           0.493862                       # Request fanout histogram
system.tol2bus.snoop_fanout::underflows             0      0.00%      0.00% # Request fanout histogram
system.tol2bus.snoop_fanout::0                 232919     57.81%     57.81% # Request fanout histogram
system.tol2bus.snoop_fanout::1                 169978     42.19%    100.00% # Request fanout histogram
system.tol2bus.snoop_fanout::2                      0      0.00%    100.00% # Request fanout histogram
system.tol2bus.snoop_fanout::3                      0      0.00%    100.00% # Request fanout histogram
system.tol2bus.snoop_fanout::4                      0      0.00%    100.00% # Request fanout histogram
system.tol2bus.snoop_fanout::overflows              0      0.00%    100.00% # Request fanout histogram
system.tol2bus.snoop_fanout::min_value              0                       # Request fanout histogram
system.tol2bus.snoop_fanout::max_value              1                       # Request fanout histogram
system.tol2bus.snoop_fanout::total             402897                       # Request fanout histogram
system.tol2bus.reqLayer0.occupancy          239646500                       # Layer occupancy (ticks)
system.tol2bus.reqLayer0.utilization              2.5                       # Layer utilization (%)
system.tol2bus.respLayer1.occupancy         309341498                       # Layer occupancy (ticks)
system.tol2bus.respLayer1.utilization             3.2                       # Layer utilization (%)
system.tol2bus.respLayer0.occupancy           1414500                       # Layer occupancy (ticks)
system.tol2bus.respLayer0.utilization             0.0                       # Layer utilization (%)
system.voltage_domain.voltage                       1                       # Voltage in Volts
system.clk_domain.clock                          1000                       # Clock period in ticks
system.l2.pwrStateResidencyTicks::UNDEFINED 359104252503500                       # Cumulative time (in ticks) in various power states
system.l2.demand_hits::.switch_cpus.inst           52                       # number of demand (read+write) hits
system.l2.demand_hits::.switch_cpus.data        23075                       # number of demand (read+write) hits
system.l2.demand_hits::total                    23127                       # number of demand (read+write) hits
system.l2.overall_hits::.switch_cpus.inst           52                       # number of overall hits
system.l2.overall_hits::.switch_cpus.data        23075                       # number of overall hits
system.l2.overall_hits::total                   23127                       # number of overall hits
system.l2.demand_misses::.cpu.inst                  2                       # number of demand (read+write) misses
system.l2.demand_misses::.cpu.data                  3                       # number of demand (read+write) misses
system.l2.demand_misses::.switch_cpus.inst          891                       # number of demand (read+write) misses
system.l2.demand_misses::.switch_cpus.data       183154                       # number of demand (read+write) misses
system.l2.demand_misses::total                 184050                       # number of demand (read+write) misses
system.l2.overall_misses::.cpu.inst                 2                       # number of overall misses
system.l2.overall_misses::.cpu.data                 3                       # number of overall misses
system.l2.overall_misses::.switch_cpus.inst          891                       # number of overall misses
system.l2.overall_misses::.switch_cpus.data       183154                       # number of overall misses
system.l2.overall_misses::total                184050                       # number of overall misses
system.l2.demand_miss_latency::.switch_cpus.inst     74050500                       # number of demand (read+write) miss cycles
system.l2.demand_miss_latency::.switch_cpus.data  15424848000                       # number of demand (read+write) miss cycles
system.l2.demand_miss_latency::total      15498898500                       # number of demand (read+write) miss cycles
system.l2.overall_miss_latency::.switch_cpus.inst     74050500                       # number of overall miss cycles
system.l2.overall_miss_latency::.switch_cpus.data  15424848000                       # number of overall miss cycles
system.l2.overall_miss_latency::total     15498898500                       # number of overall miss cycles
system.l2.demand_accesses::.cpu.inst                2                       # number of demand (read+write) accesses
system.l2.demand_accesses::.cpu.data                3                       # number of demand (read+write) accesses
system.l2.demand_accesses::.switch_cpus.inst          943                       # number of demand (read+write) accesses
system.l2.demand_accesses::.switch_cpus.data       206229                       # number of demand (read+write) accesses
system.l2.demand_accesses::total               207177                       # number of demand (read+write) accesses
system.l2.overall_accesses::.cpu.inst               2                       # number of overall (read+write) accesses
system.l2.overall_accesses::.cpu.data               3                       # number of overall (read+write) accesses
system.l2.overall_accesses::.switch_cpus.inst          943                       # number of overall (read+write) accesses
system.l2.overall_accesses::.switch_cpus.data       206229                       # number of overall (read+write) accesses
system.l2.overall_accesses::total              207177                       # number of overall (read+write) accesses
system.l2.demand_miss_rate::.cpu.inst               1                       # miss rate for demand accesses
system.l2.demand_miss_rate::.cpu.data               1                       # miss rate for demand accesses
system.l2.demand_miss_rate::.switch_cpus.inst     0.944857                       # miss rate for demand accesses
system.l2.demand_miss_rate::.switch_cpus.data     0.888110                       # miss rate for demand accesses
system.l2.demand_miss_rate::total            0.888371                       # miss rate for demand accesses
system.l2.overall_miss_rate::.cpu.inst              1                       # miss rate for overall accesses
system.l2.overall_miss_rate::.cpu.data              1                       # miss rate for overall accesses
system.l2.overall_miss_rate::.switch_cpus.inst     0.944857                       # miss rate for overall accesses
system.l2.overall_miss_rate::.switch_cpus.data     0.888110                       # miss rate for overall accesses
system.l2.overall_miss_rate::total           0.888371                       # miss rate for overall accesses
system.l2.demand_avg_miss_latency::.switch_cpus.inst 83109.427609                       # average overall miss latency
system.l2.demand_avg_miss_latency::.switch_cpus.data 84217.914979                       # average overall miss latency
system.l2.demand_avg_miss_latency::total 84210.260799                       # average overall miss latency
system.l2.overall_avg_miss_latency::.switch_cpus.inst 83109.427609                       # average overall miss latency
system.l2.overall_avg_miss_latency::.switch_cpus.data 84217.914979                       # average overall miss latency
system.l2.overall_avg_miss_latency::total 84210.260799                       # average overall miss latency
system.l2.blocked_cycles::no_mshrs                  0                       # number of cycles access was blocked
system.l2.blocked_cycles::no_targets                0                       # number of cycles access was blocked
system.l2.blocked::no_mshrs                         0                       # number of cycles access was blocked
system.l2.blocked::no_targets                       0                       # number of cycles access was blocked
system.l2.avg_blocked_cycles::no_mshrs            nan                       # average number of cycles each access was blocked
system.l2.avg_blocked_cycles::no_targets          nan                       # average number of cycles each access was blocked
system.l2.writebacks::.writebacks               14795                       # number of writebacks
system.l2.writebacks::total                     14795                       # number of writebacks
system.l2.demand_mshr_misses::.switch_cpus.inst          891                       # number of demand (read+write) MSHR misses
system.l2.demand_mshr_misses::.switch_cpus.data       183154                       # number of demand (read+write) MSHR misses
system.l2.demand_mshr_misses::total            184045                       # number of demand (read+write) MSHR misses
system.l2.overall_mshr_misses::.switch_cpus.inst          891                       # number of overall MSHR misses
system.l2.overall_mshr_misses::.switch_cpus.data       183154                       # number of overall MSHR misses
system.l2.overall_mshr_misses::total           184045                       # number of overall MSHR misses
system.l2.demand_mshr_miss_latency::.switch_cpus.inst     65140500                       # number of demand (read+write) MSHR miss cycles
system.l2.demand_mshr_miss_latency::.switch_cpus.data  13593328000                       # number of demand (read+write) MSHR miss cycles
system.l2.demand_mshr_miss_latency::total  13658468500                       # number of demand (read+write) MSHR miss cycles
system.l2.overall_mshr_miss_latency::.switch_cpus.inst     65140500                       # number of overall MSHR miss cycles
system.l2.overall_mshr_miss_latency::.switch_cpus.data  13593328000                       # number of overall MSHR miss cycles
system.l2.overall_mshr_miss_latency::total  13658468500                       # number of overall MSHR miss cycles
system.l2.demand_mshr_miss_rate::.switch_cpus.inst     0.944857                       # mshr miss rate for demand accesses
system.l2.demand_mshr_miss_rate::.switch_cpus.data     0.888110                       # mshr miss rate for demand accesses
system.l2.demand_mshr_miss_rate::total       0.888347                       # mshr miss rate for demand accesses
system.l2.overall_mshr_miss_rate::.switch_cpus.inst     0.944857                       # mshr miss rate for overall accesses
system.l2.overall_mshr_miss_rate::.switch_cpus.data     0.888110                       # mshr miss rate for overall accesses
system.l2.overall_mshr_miss_rate::total      0.888347                       # mshr miss rate for overall accesses
system.l2.demand_avg_mshr_miss_latency::.switch_cpus.inst 73109.427609                       # average overall mshr miss latency
system.l2.demand_avg_mshr_miss_latency::.switch_cpus.data 74218.024176                       # average overall mshr miss latency
system.l2.demand_avg_mshr_miss_latency::total 74212.657231                       # average overall mshr miss latency
system.l2.overall_avg_mshr_miss_latency::.switch_cpus.inst 73109.427609                       # average overall mshr miss latency
system.l2.overall_avg_mshr_miss_latency::.switch_cpus.data 74218.024176                       # average overall mshr miss latency
system.l2.overall_avg_mshr_miss_latency::total 74212.657231                       # average overall mshr miss latency
system.l2.replacements                         195720                       # number of replacements
system.l2.WritebackDirty_hits::.writebacks        32736                       # number of WritebackDirty hits
system.l2.WritebackDirty_hits::total            32736                       # number of WritebackDirty hits
system.l2.WritebackDirty_accesses::.writebacks        32736                       # number of WritebackDirty accesses(hits+misses)
system.l2.WritebackDirty_accesses::total        32736                       # number of WritebackDirty accesses(hits+misses)
system.l2.WritebackClean_hits::.writebacks          481                       # number of WritebackClean hits
system.l2.WritebackClean_hits::total              481                       # number of WritebackClean hits
system.l2.WritebackClean_accesses::.writebacks          481                       # number of WritebackClean accesses(hits+misses)
system.l2.WritebackClean_accesses::total          481                       # number of WritebackClean accesses(hits+misses)
system.l2.CleanEvict_mshr_misses::.writebacks       153337                       # number of CleanEvict MSHR misses
system.l2.CleanEvict_mshr_misses::total        153337                       # number of CleanEvict MSHR misses
system.l2.CleanEvict_mshr_miss_rate::.writebacks          inf                       # mshr miss rate for CleanEvict accesses
system.l2.CleanEvict_mshr_miss_rate::total          inf                       # mshr miss rate for CleanEvict accesses
system.l2.ReadExReq_hits::.switch_cpus.data         2008                       # number of ReadExReq hits
system.l2.ReadExReq_hits::total                  2008                       # number of ReadExReq hits
system.l2.ReadExReq_misses::.switch_cpus.data         8049                       # number of ReadExReq misses
system.l2.ReadExReq_misses::total                8049                       # number of ReadExReq misses
system.l2.ReadExReq_miss_latency::.switch_cpus.data    660762500                       # number of ReadExReq miss cycles
system.l2.ReadExReq_miss_latency::total     660762500                       # number of ReadExReq miss cycles
system.l2.ReadExReq_accesses::.switch_cpus.data        10057                       # number of ReadExReq accesses(hits+misses)
system.l2.ReadExReq_accesses::total             10057                       # number of ReadExReq accesses(hits+misses)
system.l2.ReadExReq_miss_rate::.switch_cpus.data     0.800338                       # miss rate for ReadExReq accesses
system.l2.ReadExReq_miss_rate::total         0.800338                       # miss rate for ReadExReq accesses
system.l2.ReadExReq_avg_miss_latency::.switch_cpus.data 82092.495962                       # average ReadExReq miss latency
system.l2.ReadExReq_avg_miss_latency::total 82092.495962                       # average ReadExReq miss latency
system.l2.ReadExReq_mshr_misses::.switch_cpus.data         8049                       # number of ReadExReq MSHR misses
system.l2.ReadExReq_mshr_misses::total           8049                       # number of ReadExReq MSHR misses
system.l2.ReadExReq_mshr_miss_latency::.switch_cpus.data    580272500                       # number of ReadExReq MSHR miss cycles
system.l2.ReadExReq_mshr_miss_latency::total    580272500                       # number of ReadExReq MSHR miss cycles
system.l2.ReadExReq_mshr_miss_rate::.switch_cpus.data     0.800338                       # mshr miss rate for ReadExReq accesses
system.l2.ReadExReq_mshr_miss_rate::total     0.800338                       # mshr miss rate for ReadExReq accesses
system.l2.ReadExReq_avg_mshr_miss_latency::.switch_cpus.data 72092.495962                       # average ReadExReq mshr miss latency
system.l2.ReadExReq_avg_mshr_miss_latency::total 72092.495962                       # average ReadExReq mshr miss latency
system.l2.ReadCleanReq_hits::.switch_cpus.inst           52                       # number of ReadCleanReq hits
system.l2.ReadCleanReq_hits::total                 52                       # number of ReadCleanReq hits
system.l2.ReadCleanReq_misses::.cpu.inst            2                       # number of ReadCleanReq misses
system.l2.ReadCleanReq_misses::.switch_cpus.inst          891                       # number of ReadCleanReq misses
system.l2.ReadCleanReq_misses::total              893                       # number of ReadCleanReq misses
system.l2.ReadCleanReq_miss_latency::.switch_cpus.inst     74050500                       # number of ReadCleanReq miss cycles
system.l2.ReadCleanReq_miss_latency::total     74050500                       # number of ReadCleanReq miss cycles
system.l2.ReadCleanReq_accesses::.cpu.inst            2                       # number of ReadCleanReq accesses(hits+misses)
system.l2.ReadCleanReq_accesses::.switch_cpus.inst          943                       # number of ReadCleanReq accesses(hits+misses)
system.l2.ReadCleanReq_accesses::total            945                       # number of ReadCleanReq accesses(hits+misses)
system.l2.ReadCleanReq_miss_rate::.cpu.inst            1                       # miss rate for ReadCleanReq accesses
system.l2.ReadCleanReq_miss_rate::.switch_cpus.inst     0.944857                       # miss rate for ReadCleanReq accesses
system.l2.ReadCleanReq_miss_rate::total      0.944974                       # miss rate for ReadCleanReq accesses
system.l2.ReadCleanReq_avg_miss_latency::.switch_cpus.inst 83109.427609                       # average ReadCleanReq miss latency
[...]
system.cpu.icache.tags.data_accesses         14003198                       # Number of data accesses
system.cpu.dtb.walker.pwrStateResidencyTicks::UNDEFINED 359132747823500                       # Cumulative time (in ticks) in various power states
system.cpu.interrupts.clk_domain.clock           8000                       # Clock period in ticks
system.cpu.itb_walker_cache.pwrStateResidencyTicks::UNDEFINED 359132747823500                       # Cumulative time (in ticks) in various power states
system.cpu.itb_walker_cache.blocked_cycles::no_mshrs            0                       # number of cycles access was blocked
system.cpu.itb_walker_cache.blocked_cycles::no_targets            0                       # number of cycles access was blocked
system.cpu.itb_walker_cache.blocked::no_mshrs            0                       # number of cycles access was blocked
system.cpu.itb_walker_cache.blocked::no_targets            0                       # number of cycles access was blocked
system.cpu.itb_walker_cache.avg_blocked_cycles::no_mshrs          nan                       # average number of cycles each access was blocked
system.cpu.itb_walker_cache.avg_blocked_cycles::no_targets          nan                       # average number of cycles each access was blocked
system.cpu.itb_walker_cache.replacements            0                       # number of replacements
system.cpu.itb_walker_cache.tags.pwrStateResidencyTicks::UNDEFINED 359132747823500                       # Cumulative time (in ticks) in various power states
system.cpu.itb_walker_cache.tags.tagsinuse            0                       # Cycle average of tags in use
system.cpu.itb_walker_cache.tags.total_refs            0                       # Total number of references to valid blocks.
system.cpu.itb_walker_cache.tags.sampled_refs            0                       # Sample count of references to valid blocks.
system.cpu.itb_walker_cache.tags.avg_refs          nan                       # Average number of references to valid blocks.
system.cpu.itb_walker_cache.tags.warmup_cycle            0                       # Cycle when the warmup percentage was hit.
system.cpu.itb_walker_cache.tags.tag_accesses            0                       # Number of tag accesses
system.cpu.itb_walker_cache.tags.data_accesses            0                       # Number of data accesses
system.cpu.itb.walker.pwrStateResidencyTicks::UNDEFINED 359132747823500                       # Cumulative time (in ticks) in various power states
system.cpu.dtb_walker_cache.pwrStateResidencyTicks::UNDEFINED 359132747823500                       # Cumulative time (in ticks) in various power states
system.cpu.dtb_walker_cache.blocked_cycles::no_mshrs            0                       # number of cycles access was blocked
system.cpu.dtb_walker_cache.blocked_cycles::no_targets            0                       # number of cycles access was blocked
system.cpu.dtb_walker_cache.blocked::no_mshrs            0                       # number of cycles access was blocked
system.cpu.dtb_walker_cache.blocked::no_targets            0                       # number of cycles access was blocked
system.cpu.dtb_walker_cache.avg_blocked_cycles::no_mshrs          nan                       # average number of cycles each access was blocked
system.cpu.dtb_walker_cache.avg_blocked_cycles::no_targets          nan                       # average number of cycles each access was blocked
system.cpu.dtb_walker_cache.replacements            0                       # number of replacements
system.cpu.dtb_walker_cache.tags.pwrStateResidencyTicks::UNDEFINED 359132747823500                       # Cumulative time (in ticks) in various power states
system.cpu.dtb_walker_cache.tags.tagsinuse            0                       # Cycle average of tags in use
system.cpu.dtb_walker_cache.tags.total_refs            0                       # Total number of references to valid blocks.
system.cpu.dtb_walker_cache.tags.sampled_refs            0                       # Sample count of references to valid blocks.
system.cpu.dtb_walker_cache.tags.avg_refs          nan                       # Average number of references to valid blocks.
system.cpu.dtb_walker_cache.tags.warmup_cycle            0                       # Cycle when the warmup percentage was hit.
system.cpu.dtb_walker_cache.tags.tag_accesses            0                       # Number of tag accesses
system.cpu.dtb_walker_cache.tags.data_accesses            0                       # Number of data accesses
system.cpu.dcache.pwrStateResidencyTicks::UNDEFINED 359132747823500                       # Cumulative time (in ticks) in various power states
system.cpu.dcache.demand_hits::.cpu.data            1                       # number of demand (read+write) hits
system.cpu.dcache.demand_hits::.switch_cpus.data     10701968                       # number of demand (read+write) hits
system.cpu.dcache.demand_hits::total         10701969                       # number of demand (read+write) hits
system.cpu.dcache.overall_hits::.cpu.data            1                       # number of overall hits
system.cpu.dcache.overall_hits::.switch_cpus.data     10701968                       # number of overall hits
system.cpu.dcache.overall_hits::total        10701969                       # number of overall hits
system.cpu.dcache.demand_misses::.cpu.data            3                       # number of demand (read+write) misses
system.cpu.dcache.demand_misses::.switch_cpus.data      3234767                       # number of demand (read+write) misses
system.cpu.dcache.demand_misses::total        3234770                       # number of demand (read+write) misses
system.cpu.dcache.overall_misses::.cpu.data            3                       # number of overall misses
system.cpu.dcache.overall_misses::.switch_cpus.data      3234767                       # number of overall misses
system.cpu.dcache.overall_misses::total       3234770                       # number of overall misses
system.cpu.dcache.demand_miss_latency::.switch_cpus.data 219698385096                       # number of demand (read+write) miss cycles
system.cpu.dcache.demand_miss_latency::total 219698385096                       # number of demand (read+write) miss cycles
system.cpu.dcache.overall_miss_latency::.switch_cpus.data 219698385096                       # number of overall miss cycles
system.cpu.dcache.overall_miss_latency::total 219698385096                       # number of overall miss cycles
system.cpu.dcache.demand_accesses::.cpu.data            4                       # number of demand (read+write) accesses
system.cpu.dcache.demand_accesses::.switch_cpus.data     13936735                       # number of demand (read+write) accesses
system.cpu.dcache.demand_accesses::total     13936739                       # number of demand (read+write) accesses
system.cpu.dcache.overall_accesses::.cpu.data            4                       # number of overall (read+write) accesses
system.cpu.dcache.overall_accesses::.switch_cpus.data     13936735                       # number of overall (read+write) accesses
system.cpu.dcache.overall_accesses::total     13936739                       # number of overall (read+write) accesses
system.cpu.dcache.demand_miss_rate::.cpu.data     0.750000                       # miss rate for demand accesses
system.cpu.dcache.demand_miss_rate::.switch_cpus.data     0.232104                       # miss rate for demand accesses
system.cpu.dcache.demand_miss_rate::total     0.232104                       # miss rate for demand accesses
system.cpu.dcache.overall_miss_rate::.cpu.data     0.750000                       # miss rate for overall accesses
system.cpu.dcache.overall_miss_rate::.switch_cpus.data     0.232104                       # miss rate for overall accesses
system.cpu.dcache.overall_miss_rate::total     0.232104                       # miss rate for overall accesses
system.cpu.dcache.demand_avg_miss_latency::.switch_cpus.data 67917.839243                       # average overall miss latency
system.cpu.dcache.demand_avg_miss_latency::total 67917.776255                       # average overall miss latency
system.cpu.dcache.overall_avg_miss_latency::.switch_cpus.data 67917.839243                       # average overall miss latency
system.cpu.dcache.overall_avg_miss_latency::total 67917.776255                       # average overall miss latency
system.cpu.dcache.blocked_cycles::no_mshrs      4597006                       # number of cycles access was blocked
system.cpu.dcache.blocked_cycles::no_targets          468                       # number of cycles access was blocked
system.cpu.dcache.blocked::no_mshrs            126907                       # number of cycles access was blocked
system.cpu.dcache.blocked::no_targets               2                       # number of cycles access was blocked
system.cpu.dcache.avg_blocked_cycles::no_mshrs    36.223423                       # average number of cycles each access was blocked
system.cpu.dcache.avg_blocked_cycles::no_targets          234                       # average number of cycles each access was blocked
system.cpu.dcache.writebacks::.writebacks       185083                       # number of writebacks
system.cpu.dcache.writebacks::total            185083                       # number of writebacks
system.cpu.dcache.demand_mshr_hits::.switch_cpus.data      2401677                       # number of demand (read+write) MSHR hits
system.cpu.dcache.demand_mshr_hits::total      2401677                       # number of demand (read+write) MSHR hits
system.cpu.dcache.overall_mshr_hits::.switch_cpus.data      2401677                       # number of overall MSHR hits
system.cpu.dcache.overall_mshr_hits::total      2401677                       # number of overall MSHR hits
system.cpu.dcache.demand_mshr_misses::.switch_cpus.data       833090                       # number of demand (read+write) MSHR misses
system.cpu.dcache.demand_mshr_misses::total       833090                       # number of demand (read+write) MSHR misses
system.cpu.dcache.overall_mshr_misses::.switch_cpus.data       833090                       # number of overall MSHR misses
system.cpu.dcache.overall_mshr_misses::total       833090                       # number of overall MSHR misses
system.cpu.dcache.demand_mshr_miss_latency::.switch_cpus.data  61004939098                       # number of demand (read+write) MSHR miss cycles
system.cpu.dcache.demand_mshr_miss_latency::total  61004939098                       # number of demand (read+write) MSHR miss cycles
system.cpu.dcache.overall_mshr_miss_latency::.switch_cpus.data  61004939098                       # number of overall MSHR miss cycles
system.cpu.dcache.overall_mshr_miss_latency::total  61004939098                       # number of overall MSHR miss cycles
system.cpu.dcache.demand_mshr_miss_rate::.switch_cpus.data     0.059777                       # mshr miss rate for demand accesses
system.cpu.dcache.demand_mshr_miss_rate::total     0.059777                       # mshr miss rate for demand accesses
system.cpu.dcache.overall_mshr_miss_rate::.switch_cpus.data     0.059777                       # mshr miss rate for overall accesses
system.cpu.dcache.overall_mshr_miss_rate::total     0.059777                       # mshr miss rate for overall accesses
system.cpu.dcache.demand_avg_mshr_miss_latency::.switch_cpus.data 73227.309292                       # average overall mshr miss latency
system.cpu.dcache.demand_avg_mshr_miss_latency::total 73227.309292                       # average overall mshr miss latency
system.cpu.dcache.overall_avg_mshr_miss_latency::.switch_cpus.data 73227.309292                       # average overall mshr miss latency
system.cpu.dcache.overall_avg_mshr_miss_latency::total 73227.309292                       # average overall mshr miss latency
system.cpu.dcache.replacements                 832068                       # number of replacements
system.cpu.dcache.ReadReq_hits::.cpu.data            1                       # number of ReadReq hits
system.cpu.dcache.ReadReq_hits::.switch_cpus.data      9364097                       # number of ReadReq hits
system.cpu.dcache.ReadReq_hits::total         9364098                       # number of ReadReq hits
system.cpu.dcache.ReadReq_misses::.cpu.data            3                       # number of ReadReq misses
system.cpu.dcache.ReadReq_misses::.switch_cpus.data      3193365                       # number of ReadReq misses
system.cpu.dcache.ReadReq_misses::total       3193368                       # number of ReadReq misses
system.cpu.dcache.ReadReq_miss_latency::.switch_cpus.data 217019649500                       # number of ReadReq miss cycles
system.cpu.dcache.ReadReq_miss_latency::total 217019649500                       # number of ReadReq miss cycles
system.cpu.dcache.ReadReq_accesses::.cpu.data            4                       # number of ReadReq accesses(hits+misses)
system.cpu.dcache.ReadReq_accesses::.switch_cpus.data     12557462                       # number of ReadReq accesses(hits+misses)
system.cpu.dcache.ReadReq_accesses::total     12557466                       # number of ReadReq accesses(hits+misses)
system.cpu.dcache.ReadReq_miss_rate::.cpu.data     0.750000                       # miss rate for ReadReq accesses
system.cpu.dcache.ReadReq_miss_rate::.switch_cpus.data     0.254300                       # miss rate for ReadReq accesses
system.cpu.dcache.ReadReq_miss_rate::total     0.254300                       # miss rate for ReadReq accesses
system.cpu.dcache.ReadReq_avg_miss_latency::.switch_cpus.data 67959.550349                       # average ReadReq miss latency
system.cpu.dcache.ReadReq_avg_miss_latency::total 67959.486505                       # average ReadReq miss latency
system.cpu.dcache.ReadReq_mshr_hits::.switch_cpus.data      2401332                       # number of ReadReq MSHR hits
system.cpu.dcache.ReadReq_mshr_hits::total      2401332                       # number of ReadReq MSHR hits
system.cpu.dcache.ReadReq_mshr_misses::.switch_cpus.data       792033                       # number of ReadReq MSHR misses
system.cpu.dcache.ReadReq_mshr_misses::total       792033                       # number of ReadReq MSHR misses
system.cpu.dcache.ReadReq_mshr_miss_latency::.switch_cpus.data  58386328000                       # number of ReadReq MSHR miss cycles
system.cpu.dcache.ReadReq_mshr_miss_latency::total  58386328000                       # number of ReadReq MSHR miss cycles
system.cpu.dcache.ReadReq_mshr_miss_rate::.switch_cpus.data     0.063073                       # mshr miss rate for ReadReq accesses
system.cpu.dcache.ReadReq_mshr_miss_rate::total     0.063073                       # mshr miss rate for ReadReq accesses
system.cpu.dcache.ReadReq_avg_mshr_miss_latency::.switch_cpus.data 73717.039568                       # average ReadReq mshr miss latency
system.cpu.dcache.ReadReq_avg_mshr_miss_latency::total 73717.039568                       # average ReadReq mshr miss latency
system.cpu.dcache.WriteReq_hits::.switch_cpus.data      1337871                       # number of WriteReq hits
system.cpu.dcache.WriteReq_hits::total        1337871                       # number of WriteReq hits
system.cpu.dcache.WriteReq_misses::.switch_cpus.data        41402                       # number of WriteReq misses
system.cpu.dcache.WriteReq_misses::total        41402                       # number of WriteReq misses
system.cpu.dcache.WriteReq_miss_latency::.switch_cpus.data   2678735596                       # number of WriteReq miss cycles
system.cpu.dcache.WriteReq_miss_latency::total   2678735596                       # number of WriteReq miss cycles
system.cpu.dcache.WriteReq_accesses::.switch_cpus.data      1379273                       # number of WriteReq accesses(hits+misses)
system.cpu.dcache.WriteReq_accesses::total      1379273                       # number of WriteReq accesses(hits+misses)
system.cpu.dcache.WriteReq_miss_rate::.switch_cpus.data     0.030017                       # miss rate for WriteReq accesses
system.cpu.dcache.WriteReq_miss_rate::total     0.030017                       # miss rate for WriteReq accesses
system.cpu.dcache.WriteReq_avg_miss_latency::.switch_cpus.data 64700.632723                       # average WriteReq miss latency
system.cpu.dcache.WriteReq_avg_miss_latency::total 64700.632723                       # average WriteReq miss latency
system.cpu.dcache.WriteReq_mshr_hits::.switch_cpus.data          345                       # number of WriteReq MSHR hits
system.cpu.dcache.WriteReq_mshr_hits::total          345                       # number of WriteReq MSHR hits
system.cpu.dcache.WriteReq_mshr_misses::.switch_cpus.data        41057                       # number of WriteReq MSHR misses
system.cpu.dcache.WriteReq_mshr_misses::total        41057                       # number of WriteReq MSHR misses
system.cpu.dcache.WriteReq_mshr_miss_latency::.switch_cpus.data   2618611098                       # number of WriteReq MSHR miss cycles
system.cpu.dcache.WriteReq_mshr_miss_latency::total   2618611098                       # number of WriteReq MSHR miss cycles
system.cpu.dcache.WriteReq_mshr_miss_rate::.switch_cpus.data     0.029767                       # mshr miss rate for WriteReq accesses
system.cpu.dcache.WriteReq_mshr_miss_rate::total     0.029767                       # mshr miss rate for WriteReq accesses
system.cpu.dcache.WriteReq_avg_mshr_miss_latency::.switch_cpus.data 63779.893757                       # average WriteReq mshr miss latency
system.cpu.dcache.WriteReq_avg_mshr_miss_latency::total 63779.893757                       # average WriteReq mshr miss latency
system.cpu.dcache.tags.pwrStateResidencyTicks::UNDEFINED 359132747823500                       # Cumulative time (in ticks) in various power states
system.cpu.dcache.tags.tagsinuse             0.108954                       # Cycle average of tags in use
system.cpu.dcache.tags.total_refs            11535061                       # Total number of references to valid blocks.
system.cpu.dcache.tags.sampled_refs            833092                       # Sample count of references to valid blocks.
system.cpu.dcache.tags.avg_refs             13.846083                       # Average number of references to valid blocks.
system.cpu.dcache.tags.warmup_cycle      359094507845000                       # Cycle when the warmup percentage was hit.
system.cpu.dcache.tags.occ_blocks::.cpu.data     0.000002                       # Average occupied blocks per requestor
system.cpu.dcache.tags.occ_blocks::.switch_cpus.data     0.108952                       # Average occupied blocks per requestor
system.cpu.dcache.tags.occ_percent::.cpu.data     0.000000                       # Average percentage of cache occupancy
system.cpu.dcache.tags.occ_percent::.switch_cpus.data     0.000106                       # Average percentage of cache occupancy
system.cpu.dcache.tags.occ_percent::total     0.000106                       # Average percentage of cache occupancy
system.cpu.dcache.tags.occ_task_id_blocks::1024         1024                       # Occupied blocks per task id
system.cpu.dcache.tags.age_task_id_blocks_1024::0          224                       # Occupied blocks per task id
system.cpu.dcache.tags.age_task_id_blocks_1024::1          721                       # Occupied blocks per task id
system.cpu.dcache.tags.age_task_id_blocks_1024::2           79                       # Occupied blocks per task id
system.cpu.dcache.tags.occ_task_id_percent::1024            1                       # Percentage of cache occupancy per task id
system.cpu.dcache.tags.tag_accesses          28706570                       # Number of tag accesses
system.cpu.dcache.tags.data_accesses         28706570                       # Number of data accesses

---------- End Simulation Statistics   ----------
