
---------- Begin Simulation Statistics ----------
final_tick                               560740683799000                       # Number of ticks from beginning of simulation (restored from checkpoints and never reset)
host_inst_rate                                  40785                       # Simulator instruction rate (inst/s)
host_mem_usage                                 879144                       # Number of bytes of host memory used
host_op_rate                                    91673                       # Simulator op (including micro ops) rate (op/s)
host_seconds                                   245.19                       # Real time elapsed on the host
host_tick_rate                               27147734                       # Simulator tick rate (ticks/s)
sim_freq                                 1000000000000                       # Frequency of simulated ticks
sim_insts                                    10000008                       # Number of instructions simulated
sim_ops                                      22477347                       # Number of ops (including micro ops) simulated
sim_seconds                                  0.006656                       # Number of seconds simulated
sim_ticks                                  6656349000                       # Number of ticks simulated
system.cpu.committedInsts                           8                       # Number of instructions committed
system.cpu.committedOps                            16                       # Number of ops (including micro ops) committed
system.cpu.dtb.rdAccesses                           2                       # TLB accesses on read requests
system.cpu.dtb.rdMisses                             0                       # TLB misses on read requests
system.cpu.dtb.wrAccesses                           4                       # TLB accesses on write requests
system.cpu.dtb.wrMisses                             0                       # TLB misses on write requests
system.cpu.idle_fraction                            0                       # Percentage of idle cycles
system.cpu.itb.rdAccesses                           0                       # TLB accesses on read requests
system.cpu.itb.rdMisses                             0                       # TLB misses on read requests
system.cpu.itb.wrAccesses                          13                       # TLB accesses on write requests
system.cpu.itb.wrMisses                             0                       # TLB misses on write requests
system.cpu.not_idle_fraction                        1                       # Percentage of non-idle cycles
system.cpu.numCycles                               21                       # number of cpu cycles simulated
system.cpu.numWorkItemsCompleted                    0                       # number of work items this cpu completed
system.cpu.numWorkItemsStarted                      0                       # number of work items this cpu started
system.cpu.num_busy_cycles                         21                       # Number of busy cycles
system.cpu.num_conditional_control_insts            0                       # number of instructions that are conditional controls
system.cpu.num_fp_alu_accesses                     16                       # Number of float alu accesses
system.cpu.num_fp_insts                            16                       # number of float instructions
system.cpu.num_fp_register_reads                   32                       # number of times the floating registers were read
system.cpu.num_fp_register_writes                  12                       # number of times the floating registers were written
system.cpu.num_func_calls                           0                       # number of times a function call or return occured
system.cpu.num_idle_cycles                          0                       # Number of idle cycles
system.cpu.num_int_alu_accesses                     6                       # Number of integer alu accesses
system.cpu.num_int_insts                            6                       # number of integer instructions
system.cpu.num_int_register_reads                  18                       # number of times the integer registers were read
system.cpu.num_int_register_writes                  0                       # number of times the integer registers were written
system.cpu.num_load_insts                           2                       # Number of load instructions
system.cpu.num_mem_refs                             6                       # number of memory refs
system.cpu.num_store_insts                          4                       # Number of store instructions
system.cpu.num_vec_alu_accesses                     0                       # Number of vector alu accesses
system.cpu.num_vec_insts                            0                       # number of vector instructions
system.cpu.num_vec_register_reads                   0                       # number of times the vector registers were read
system.cpu.num_vec_register_writes                  0                       # number of times the vector registers were written
system.cpu.op_class::No_OpClass                     0      0.00%      0.00% # Class of executed instruction
system.cpu.op_class::IntAlu                         2     12.50%     12.50% # Class of executed instruction
system.cpu.op_class::IntMult                        0      0.00%     12.50% # Class of executed instruction
system.cpu.op_class::IntDiv                         0      0.00%     12.50% # Class of executed instruction
system.cpu.op_class::FloatAdd                       0      0.00%     12.50% # Class of executed instruction
system.cpu.op_class::FloatCmp                       0      0.00%     12.50% # Class of executed instruction
system.cpu.op_class::FloatCvt                       0      0.00%     12.50% # Class of executed instruction
system.cpu.op_class::FloatMult                      0      0.00%     12.50% # Class of executed instruction
system.cpu.op_class::FloatMultAcc                   0      0.00%     12.50% # Class of executed instruction
system.cpu.op_class::FloatDiv                       0      0.00%     12.50% # Class of executed instruction
system.cpu.op_class::FloatMisc                      0      0.00%     12.50% # Class of executed instruction
system.cpu.op_class::FloatSqrt                      0      0.00%     12.50% # Class of executed instruction
system.cpu.op_class::SimdAdd                        0      0.00%     12.50% # Class of executed instruction
system.cpu.op_class::SimdAddAcc                     0      0.00%     12.50% # Class of executed instruction
system.cpu.op_class::SimdAlu                        0      0.00%     12.50% # Class of executed instruction
system.cpu.op_class::SimdCmp                        0      0.00%     12.50% # Class of executed instruction
system.cpu.op_class::SimdCvt                        0      0.00%     12.50% # Class of executed instruction
system.cpu.op_class::SimdMisc                       0      0.00%     12.50% # Class of executed instruction
system.cpu.op_class::SimdMult                       0      0.00%     12.50% # Class of executed instruction
system.cpu.op_class::SimdMultAcc                    0      0.00%     12.50% # Class of executed instruction
system.cpu.op_class::SimdShift                      0      0.00%     12.50% # Class of executed instruction
system.cpu.op_class::SimdShiftAcc                   0      0.00%     12.50% # Class of executed instruction
system.cpu.op_class::SimdDiv                        0      0.00%     12.50% # Class of executed instruction
system.cpu.op_class::SimdSqrt                       0      0.00%     12.50% # Class of executed instruction
system.cpu.op_class::SimdFloatAdd                   6     37.50%     50.00% # Class of executed instruction
system.cpu.op_class::SimdFloatAlu                   0      0.00%     50.00% # Class of executed instruction
system.cpu.op_class::SimdFloatCmp                   0      0.00%     50.00% # Class of executed instruction
system.cpu.op_class::SimdFloatCvt                   0      0.00%     50.00% # Class of executed instruction
system.cpu.op_class::SimdFloatDiv                   0      0.00%     50.00% # Class of executed instruction
system.cpu.op_class::SimdFloatMisc                  0      0.00%     50.00% # Class of executed instruction
system.cpu.op_class::SimdFloatMult                  2     12.50%     62.50% # Class of executed instruction
system.cpu.op_class::SimdFloatMultAcc               0      0.00%     62.50% # Class of executed instruction
system.cpu.op_class::SimdFloatSqrt                  0      0.00%     62.50% # Class of executed instruction
system.cpu.op_class::SimdReduceAdd                  0      0.00%     62.50% # Class of executed instruction
system.cpu.op_class::SimdReduceAlu                  0      0.00%     62.50% # Class of executed instruction
system.cpu.op_class::SimdReduceCmp                  0      0.00%     62.50% # Class of executed instruction
system.cpu.op_class::SimdFloatReduceAdd             0      0.00%     62.50% # Class of executed instruction
system.cpu.op_class::SimdFloatReduceCmp             0      0.00%     62.50% # Class of executed instruction
system.cpu.op_class::SimdAes                        0      0.00%     62.50% # Class of executed instruction
system.cpu.op_class::SimdAesMix                     0      0.00%     62.50% # Class of executed instruction
system.cpu.op_class::SimdSha1Hash                   0      0.00%     62.50% # Class of executed instruction
system.cpu.op_class::SimdSha1Hash2                  0      0.00%     62.50% # Class of executed instruction
system.cpu.op_class::SimdSha256Hash                 0      0.00%     62.50% # Class of executed instruction
system.cpu.op_class::SimdSha256Hash2                0      0.00%     62.50% # Class of executed instruction
system.cpu.op_class::SimdShaSigma2                  0      0.00%     62.50% # Class of executed instruction
system.cpu.op_class::SimdShaSigma3                  0      0.00%     62.50% # Class of executed instruction
system.cpu.op_class::SimdPredAlu                    0      0.00%     62.50% # Class of executed instruction
system.cpu.op_class::MemRead                        0      0.00%     62.50% # Class of executed instruction
system.cpu.op_class::MemWrite                       0      0.00%     62.50% # Class of executed instruction
system.cpu.op_class::FloatMemRead                   2     12.50%     75.00% # Class of executed instruction
system.cpu.op_class::FloatMemWrite                  4     25.00%    100.00% # Class of executed instruction
system.cpu.op_class::IprAccess                      0      0.00%    100.00% # Class of executed instruction
system.cpu.op_class::InstPrefetch                   0      0.00%    100.00% # Class of executed instruction
system.cpu.op_class::total                         16                       # Class of executed instruction
system.cpu.workload.numSyscalls                     0                       # Number of system calls
system.l2.prefetcher.num_hwpf_issued            37436                       # number of hwpf issued
system.l2.prefetcher.pfBufferHit                   14                       # number of redundant prefetches already in prefetch queue
system.l2.prefetcher.pfIdentified               37482                       # number of prefetch candidates identified
system.l2.prefetcher.pfInCache                      0                       # number of redundant prefetches already in cache/mshr dropped
system.l2.prefetcher.pfRemovedFull                  0                       # number of prefetches dropped due to prefetch queue size
system.l2.prefetcher.pfSpanPage                  1898                       # number of prefetches that crossed the page
system.membus.snoop_filter.hit_multi_requests            0                       # Number of requests hitting in the snoop filter with multiple (>1) holders of the requested data.
system.membus.snoop_filter.hit_multi_snoops            0                       # Number of snoops hitting in the snoop filter with multiple (>1) holders of the requested data.
system.membus.snoop_filter.hit_single_requests        94283                       # Number of requests hitting in the snoop filter with a single holder of the requested data.
system.membus.snoop_filter.hit_single_snoops            0                       # Number of snoops hitting in the snoop filter with a single holder of the requested data.
system.membus.snoop_filter.tot_requests        193154                       # Total number of requests made to the snoop filter.
system.membus.snoop_filter.tot_snoops               0                       # Total number of snoops made to the snoop filter.
system.switch_cpus.branchPred.BTBCorrect            0                       # Number of correct BTB predictions (this stat may not work properly.
system.switch_cpus.branchPred.BTBHitPct      0.000000                       # BTB Hit Percentage
system.switch_cpus.branchPred.BTBHits               0                       # Number of BTB hits
system.switch_cpus.branchPred.BTBLookups        35131                       # Number of BTB lookups
system.switch_cpus.branchPred.RASInCorrect            0                       # Number of incorrect RAS predictions.
system.switch_cpus.branchPred.condIncorrect          793                       # Number of conditional branches incorrect
system.switch_cpus.branchPred.condPredicted        40216                       # Number of conditional branches predicted
system.switch_cpus.branchPred.indirectHits        28195                       # Number of indirect target hits.
system.switch_cpus.branchPred.indirectLookups        35131                       # Number of indirect predictor lookups.
system.switch_cpus.branchPred.indirectMisses         6936                       # Number of indirect misses.
system.switch_cpus.branchPred.lookups           45705                       # Number of BP lookups
system.switch_cpus.branchPred.usedRAS            5115                       # Number of times the RAS was used to get a target.
system.switch_cpus.branchPredindirectMispredicted           55                       # Number of mispredicted indirect branches.
system.switch_cpus.cc_regfile_reads            196512                       # number of cc regfile reads
system.switch_cpus.cc_regfile_writes           329314                       # number of cc regfile writes
system.switch_cpus.commit.amos                      0                       # Number of atomic instructions committed
system.switch_cpus.commit.branchMispredicts          793                       # The number of times a branch was mispredicted
system.switch_cpus.commit.branches              19425                       # Number of branches committed
system.switch_cpus.commit.bw_lim_events       1552521                       # number cycles where commit BW limit reached
system.switch_cpus.commit.commitNonSpecStalls          320                       # The number of times commit has been forced to stall to communicate backwards
system.switch_cpus.commit.commitSquashedInsts       469090                       # The number of squashed insts skipped by commit
system.switch_cpus.commit.committedInsts     10000000                       # Number of instructions committed
system.switch_cpus.commit.committedOps       22477331                       # Number of ops (including micro ops) committed
system.switch_cpus.commit.committed_per_cycle::samples     13217317                       # Number of insts commited each cycle
system.switch_cpus.commit.committed_per_cycle::mean     1.700597                       # Number of insts commited each cycle
system.switch_cpus.commit.committed_per_cycle::stdev     2.813464                       # Number of insts commited each cycle
system.switch_cpus.commit.committed_per_cycle::underflows            0      0.00%      0.00% # Number of insts commited each cycle
system.switch_cpus.commit.committed_per_cycle::0      8539615     64.61%     64.61% # Number of insts commited each cycle
system.switch_cpus.commit.committed_per_cycle::1       680300      5.15%     69.76% # Number of insts commited each cycle
system.switch_cpus.commit.committed_per_cycle::2       824976      6.24%     76.00% # Number of insts commited each cycle
system.switch_cpus.commit.committed_per_cycle::3       264251      2.00%     78.00% # Number of insts commited each cycle
system.switch_cpus.commit.committed_per_cycle::4       566479      4.29%     82.28% # Number of insts commited each cycle
system.switch_cpus.commit.committed_per_cycle::5       261162      1.98%     84.26% # Number of insts commited each cycle
system.switch_cpus.commit.committed_per_cycle::6       333659      2.52%     86.78% # Number of insts commited each cycle
system.switch_cpus.commit.committed_per_cycle::7       194354      1.47%     88.25% # Number of insts commited each cycle
system.switch_cpus.commit.committed_per_cycle::8      1552521     11.75%    100.00% # Number of insts commited each cycle
system.switch_cpus.commit.committed_per_cycle::overflows            0      0.00%    100.00% # Number of insts commited each cycle
system.switch_cpus.commit.committed_per_cycle::min_value            0                       # Number of insts commited each cycle
system.switch_cpus.commit.committed_per_cycle::max_value            8                       # Number of insts commited each cycle
system.switch_cpus.commit.committed_per_cycle::total     13217317                       # Number of insts commited each cycle
system.switch_cpus.commit.fp_insts           21302745                       # Number of committed floating point instructions.
system.switch_cpus.commit.function_calls          320                       # Number of function calls committed.
system.switch_cpus.commit.int_insts          10363713                       # Number of committed integer instructions.
system.switch_cpus.commit.loads               7651132                       # Number of loads committed
system.switch_cpus.commit.membars                   0                       # Number of memory barriers committed
system.switch_cpus.commit.op_class_0::No_OpClass          637      0.00%      0.00% # Class of committed instruction
system.switch_cpus.commit.op_class_0::IntAlu      3034804     13.50%     13.50% # Class of committed instruction
system.switch_cpus.commit.op_class_0::IntMult          658      0.00%     13.51% # Class of committed instruction
system.switch_cpus.commit.op_class_0::IntDiv            0      0.00%     13.51% # Class of committed instruction
system.switch_cpus.commit.op_class_0::FloatAdd          328      0.00%     13.51% # Class of committed instruction
system.switch_cpus.commit.op_class_0::FloatCmp            0      0.00%     13.51% # Class of committed instruction
system.switch_cpus.commit.op_class_0::FloatCvt            0      0.00%     13.51% # Class of committed instruction
system.switch_cpus.commit.op_class_0::FloatMult            0      0.00%     13.51% # Class of committed instruction
system.switch_cpus.commit.op_class_0::FloatMultAcc            0      0.00%     13.51% # Class of committed instruction
system.switch_cpus.commit.op_class_0::FloatDiv            0      0.00%     13.51% # Class of committed instruction
system.switch_cpus.commit.op_class_0::FloatMisc            0      0.00%     13.51% # Class of committed instruction
system.switch_cpus.commit.op_class_0::FloatSqrt            0      0.00%     13.51% # Class of committed instruction
system.switch_cpus.commit.op_class_0::SimdAdd            0      0.00%     13.51% # Class of committed instruction
system.switch_cpus.commit.op_class_0::SimdAddAcc            0      0.00%     13.51% # Class of committed instruction
system.switch_cpus.commit.op_class_0::SimdAlu        47726      0.21%     13.72% # Class of committed instruction
system.switch_cpus.commit.op_class_0::SimdCmp            0      0.00%     13.72% # Class of committed instruction
system.switch_cpus.commit.op_class_0::SimdCvt            0      0.00%     13.72% # Class of committed instruction
system.switch_cpus.commit.op_class_0::SimdMisc            0      0.00%     13.72% # Class of committed instruction
system.switch_cpus.commit.op_class_0::SimdMult            0      0.00%     13.72% # Class of committed instruction
system.switch_cpus.commit.op_class_0::SimdMultAcc            0      0.00%     13.72% # Class of committed instruction
system.switch_cpus.commit.op_class_0::SimdShift            0      0.00%     13.72% # Class of committed instruction
system.switch_cpus.commit.op_class_0::SimdShiftAcc            0      0.00%     13.72% # Class of committed instruction
system.switch_cpus.commit.op_class_0::SimdDiv            0      0.00%     13.72% # Class of committed instruction
system.switch_cpus.commit.op_class_0::SimdSqrt            0      0.00%     13.72% # Class of committed instruction
system.switch_cpus.commit.op_class_0::SimdFloatAdd      5476711     24.37%     38.09% # Class of committed instruction
system.switch_cpus.commit.op_class_0::SimdFloatAlu            0      0.00%     38.09% # Class of committed instruction
system.switch_cpus.commit.op_class_0::SimdFloatCmp            0      0.00%     38.09% # Class of committed instruction
system.switch_cpus.commit.op_class_0::SimdFloatCvt            0      0.00%     38.09% # Class of committed instruction
system.switch_cpus.commit.op_class_0::SimdFloatDiv        11440      0.05%     38.14% # Class of committed instruction
system.switch_cpus.commit.op_class_0::SimdFloatMisc            0      0.00%     38.14% # Class of committed instruction
system.switch_cpus.commit.op_class_0::SimdFloatMult      4002296     17.81%     55.94% # Class of committed instruction
system.switch_cpus.commit.op_class_0::SimdFloatMultAcc            0      0.00%     55.94% # Class of committed instruction
system.switch_cpus.commit.op_class_0::SimdFloatSqrt            0      0.00%     55.94% # Class of committed instruction
system.switch_cpus.commit.op_class_0::SimdReduceAdd            0      0.00%     55.94% # Class of committed instruction
system.switch_cpus.commit.op_class_0::SimdReduceAlu            0      0.00%     55.94% # Class of committed instruction
system.switch_cpus.commit.op_class_0::SimdReduceCmp            0      0.00%     55.94% # Class of committed instruction
system.switch_cpus.commit.op_class_0::SimdFloatReduceAdd            0      0.00%     55.94% # Class of committed instruction
system.switch_cpus.commit.op_class_0::SimdFloatReduceCmp            0      0.00%     55.94% # Class of committed instruction
system.switch_cpus.commit.op_class_0::SimdAes            0      0.00%     55.94% # Class of committed instruction
system.switch_cpus.commit.op_class_0::SimdAesMix            0      0.00%     55.94% # Class of committed instruction
system.switch_cpus.commit.op_class_0::SimdSha1Hash            0      0.00%     55.94% # Class of committed instruction
system.switch_cpus.commit.op_class_0::SimdSha1Hash2            0      0.00%     55.94% # Class of committed instruction
system.switch_cpus.commit.op_class_0::SimdSha256Hash            0      0.00%     55.94% # Class of committed instruction
system.switch_cpus.commit.op_class_0::SimdSha256Hash2            0      0.00%     55.94% # Class of committed instruction
system.switch_cpus.commit.op_class_0::SimdShaSigma2            0      0.00%     55.94% # Class of committed instruction
system.switch_cpus.commit.op_class_0::SimdShaSigma3            0      0.00%     55.94% # Class of committed instruction
system.switch_cpus.commit.op_class_0::SimdPredAlu            0      0.00%     55.94% # Class of committed instruction
system.switch_cpus.commit.op_class_0::MemRead       657014      2.92%     58.87% # Class of committed instruction
system.switch_cpus.commit.op_class_0::MemWrite        55633      0.25%     59.11% # Class of committed instruction
system.switch_cpus.commit.op_class_0::FloatMemRead      6994118     31.12%     90.23% # Class of committed instruction
system.switch_cpus.commit.op_class_0::FloatMemWrite      2195966      9.77%    100.00% # Class of committed instruction
system.switch_cpus.commit.op_class_0::IprAccess            0      0.00%    100.00% # Class of committed instruction
system.switch_cpus.commit.op_class_0::InstPrefetch            0      0.00%    100.00% # Class of committed instruction
system.switch_cpus.commit.op_class_0::total     22477331                       # Class of committed instruction
system.switch_cpus.commit.refs                9902731                       # Number of memory references committed
system.switch_cpus.commit.swp_count                 0                       # Number of s/w prefetches committed
system.switch_cpus.commit.vec_insts                 0                       # Number of committed Vector instructions.
system.switch_cpus.committedInsts            10000000                       # Number of Instructions Simulated
system.switch_cpus.committedOps              22477331                       # Number of Ops (including micro ops) Simulated
system.switch_cpus.cpi                       1.331268                       # CPI: Cycles Per Instruction
system.switch_cpus.cpi_total                 1.331268                       # CPI: Total CPI of All Threads
system.switch_cpus.decode.BlockedCycles       9428411                       # Number of cycles decode is blocked
system.switch_cpus.decode.DecodedInsts       23108432                       # Number of instructions handled by decode
system.switch_cpus.decode.IdleCycles           743048                       # Number of cycles decode is idle
system.switch_cpus.decode.RunCycles           2481073                       # Number of cycles decode is running
system.switch_cpus.decode.SquashCycles           6075                       # Number of cycles decode is squashing
system.switch_cpus.decode.UnblockCycles        620000                       # Number of cycles decode is unblocking
system.switch_cpus.dtb.rdAccesses             7786191                       # TLB accesses on read requests
system.switch_cpus.dtb.rdMisses                  1498                       # TLB misses on read requests
system.switch_cpus.dtb.wrAccesses             2367328                       # TLB accesses on write requests
system.switch_cpus.dtb.wrMisses                   569                       # TLB misses on write requests
system.switch_cpus.fetch.Branches               45705                       # Number of branches that fetch encountered
system.switch_cpus.fetch.CacheLines           1084041                       # Number of cache lines fetched
system.switch_cpus.fetch.Cycles              12163161                       # Number of cycles fetch has run and was not squashing or blocked
system.switch_cpus.fetch.IcacheSquashes           131                       # Number of outstanding Icache misses that were squashed
system.switch_cpus.fetch.Insts               10473363                       # Number of instructions fetch has processed
system.switch_cpus.fetch.SquashCycles           12150                       # Number of cycles fetch has spent squashing
system.switch_cpus.fetch.branchRate          0.003433                       # Number of branch fetches per cycle
system.switch_cpus.fetch.icacheStallCycles      1109713                       # Number of cycles fetch is stalled on an Icache miss
system.switch_cpus.fetch.predictedBranches        33310                       # Number of branches that fetch has predicted taken
system.switch_cpus.fetch.rate                0.786721                       # Number of inst fetches per cycle
system.switch_cpus.fetch.rateDist::samples     13278949                       # Number of instructions fetched each cycle (Total)
system.switch_cpus.fetch.rateDist::mean      1.754998                       # Number of instructions fetched each cycle (Total)
system.switch_cpus.fetch.rateDist::stdev     3.147646                       # Number of instructions fetched each cycle (Total)
system.switch_cpus.fetch.rateDist::underflows            0      0.00%      0.00% # Number of instructions fetched each cycle (Total)
system.switch_cpus.fetch.rateDist::0          9801429     73.81%     73.81% # Number of instructions fetched each cycle (Total)
system.switch_cpus.fetch.rateDist::1           103823      0.78%     74.59% # Number of instructions fetched each cycle (Total)
system.switch_cpus.fetch.rateDist::2           215298      1.62%     76.21% # Number of instructions fetched each cycle (Total)
system.switch_cpus.fetch.rateDist::3           168909      1.27%     77.49% # Number of instructions fetched each cycle (Total)
system.switch_cpus.fetch.rateDist::4           178281      1.34%     78.83% # Number of instructions fetched each cycle (Total)
system.switch_cpus.fetch.rateDist::5           144012      1.08%     79.91% # Number of instructions fetched each cycle (Total)
system.switch_cpus.fetch.rateDist::6           217444      1.64%     81.55% # Number of instructions fetched each cycle (Total)
system.switch_cpus.fetch.rateDist::7            72484      0.55%     82.10% # Number of instructions fetched each cycle (Total)
system.switch_cpus.fetch.rateDist::8          2377269     17.90%    100.00% # Number of instructions fetched each cycle (Total)
system.switch_cpus.fetch.rateDist::overflows            0      0.00%    100.00% # Number of instructions fetched each cycle (Total)
system.switch_cpus.fetch.rateDist::min_value            0                       # Number of instructions fetched each cycle (Total)
system.switch_cpus.fetch.rateDist::max_value            8                       # Number of instructions fetched each cycle (Total)
system.switch_cpus.fetch.rateDist::total     13278949                       # Number of instructions fetched each cycle (Total)
system.switch_cpus.fp_regfile_reads          35989001                       # number of floating regfile reads
system.switch_cpus.fp_regfile_writes         19172421                       # number of floating regfile writes
system.switch_cpus.idleCycles                   33728                       # Total number of cycles that the CPU has spent unscheduled due to idling
system.switch_cpus.iew.branchMispredicts          824                       # Number of branch mispredicts detected at execute
system.switch_cpus.iew.exec_branches            37004                       # Number of branches executed
system.switch_cpus.iew.exec_nop                     0                       # number of nop insts executed
system.switch_cpus.iew.exec_rate             1.736617                       # Inst execution rate
system.switch_cpus.iew.exec_refs             10301452                       # number of memory reference insts executed
system.switch_cpus.iew.exec_stores            2367328                       # Number of stores executed
system.switch_cpus.iew.exec_swp                     0                       # number of swp insts executed
system.switch_cpus.iew.iewBlockCycles          353527                       # Number of cycles IEW is blocking
system.switch_cpus.iew.iewDispLoadInsts       7789903                       # Number of dispatched load instructions
system.switch_cpus.iew.iewDispNonSpecInsts            0                       # Number of dispatched non-speculative instructions
system.switch_cpus.iew.iewDispSquashedInsts           11                       # Number of squashed instructions skipped by dispatch
system.switch_cpus.iew.iewDispStoreInsts      2418883                       # Number of dispatched store instructions
system.switch_cpus.iew.iewDispatchedInsts     23042546                       # Number of instructions dispatched to IQ
system.switch_cpus.iew.iewExecLoadInsts       7934124                       # Number of load instructions executed
system.switch_cpus.iew.iewExecSquashedInsts         4757                       # Number of squashed instructions skipped in execute
system.switch_cpus.iew.iewExecutedInsts      23119016                       # Number of executed instructions
system.switch_cpus.iew.iewIQFullEvents           3721                       # Number of times the IQ has become full, causing a stall
system.switch_cpus.iew.iewIdleCycles                0                       # Number of cycles IEW is idle
system.switch_cpus.iew.iewLSQFullEvents       2781533                       # Number of times the LSQ has become full, causing a stall
system.switch_cpus.iew.iewSquashCycles           6075                       # Number of cycles IEW is squashing
system.switch_cpus.iew.iewUnblockCycles       2790741                       # Number of cycles IEW is unblocking
system.switch_cpus.iew.lsq.thread0.blockedLoads            0                       # Number of blocked loads due to partial load-store forwarding
system.switch_cpus.iew.lsq.thread0.cacheBlocked        27284                       # Number of times an access to memory failed due to the cache being blocked
system.switch_cpus.iew.lsq.thread0.forwLoads       580035                       # Number of loads that had data forwarded from stores
system.switch_cpus.iew.lsq.thread0.ignoredResponses            9                       # Number of memory responses ignored because the instruction is squashed
system.switch_cpus.iew.lsq.thread0.invAddrLoads            0                       # Number of loads ignored due to an invalid address
system.switch_cpus.iew.lsq.thread0.invAddrSwpfs            0                       # Number of software prefetches ignored due to an invalid address
system.switch_cpus.iew.lsq.thread0.memOrderViolation          250                       # Number of memory ordering violations
system.switch_cpus.iew.lsq.thread0.rescheduledLoads            0                       # Number of loads that were rescheduled
system.switch_cpus.iew.lsq.thread0.squashedLoads       138750                       # Number of loads squashed
system.switch_cpus.iew.lsq.thread0.squashedStores       167276                       # Number of stores squashed
system.switch_cpus.iew.memOrderViolationEvents          250                       # Number of memory order violations
system.switch_cpus.iew.predictedNotTakenIncorrect          131                       # Number of branches that were predicted not taken incorrectly
system.switch_cpus.iew.predictedTakenIncorrect          693                       # Number of branches that were predicted taken incorrectly
system.switch_cpus.iew.wb_consumers          28876518                       # num instructions consuming a value
system.switch_cpus.iew.wb_count              22919569                       # cumulative count of insts written-back
system.switch_cpus.iew.wb_fanout             0.606179                       # average fanout of values written-back
system.switch_cpus.iew.wb_producers          17504335                       # num instructions producing a value
system.switch_cpus.iew.wb_rate               1.721635                       # insts written-back per cycle
system.switch_cpus.iew.wb_sent               22962613                       # cumulative count of insts sent to commit
system.switch_cpus.int_regfile_reads         21276061                       # number of integer regfile reads
system.switch_cpus.int_regfile_writes         1345178                       # number of integer regfile writes
system.switch_cpus.ipc                       0.751164                       # IPC: Instructions Per Cycle
system.switch_cpus.ipc_total                 0.751164                       # IPC: Total IPC of All Threads
system.switch_cpus.iq.FU_type_0::No_OpClass        41151      0.18%      0.18% # Type of FU issued
system.switch_cpus.iq.FU_type_0::IntAlu       3237434     14.00%     14.18% # Type of FU issued
system.switch_cpus.iq.FU_type_0::IntMult          658      0.00%     14.18% # Type of FU issued
system.switch_cpus.iq.FU_type_0::IntDiv             0      0.00%     14.18% # Type of FU issued
system.switch_cpus.iq.FU_type_0::FloatAdd         2677      0.01%     14.19% # Type of FU issued
system.switch_cpus.iq.FU_type_0::FloatCmp            0      0.00%     14.19% # Type of FU issued
system.switch_cpus.iq.FU_type_0::FloatCvt            0      0.00%     14.19% # Type of FU issued
system.switch_cpus.iq.FU_type_0::FloatMult            0      0.00%     14.19% # Type of FU issued
system.switch_cpus.iq.FU_type_0::FloatMultAcc            0      0.00%     14.19% # Type of FU issued
system.switch_cpus.iq.FU_type_0::FloatDiv            0      0.00%     14.19% # Type of FU issued
system.switch_cpus.iq.FU_type_0::FloatMisc            0      0.00%     14.19% # Type of FU issued
system.switch_cpus.iq.FU_type_0::FloatSqrt            0      0.00%     14.19% # Type of FU issued
system.switch_cpus.iq.FU_type_0::SimdAdd            0      0.00%     14.19% # Type of FU issued
system.switch_cpus.iq.FU_type_0::SimdAddAcc            0      0.00%     14.19% # Type of FU issued
system.switch_cpus.iq.FU_type_0::SimdAlu        47767      0.21%     14.40% # Type of FU issued
system.switch_cpus.iq.FU_type_0::SimdCmp            0      0.00%     14.40% # Type of FU issued
system.switch_cpus.iq.FU_type_0::SimdCvt            0      0.00%     14.40% # Type of FU issued
system.switch_cpus.iq.FU_type_0::SimdMisc            0      0.00%     14.40% # Type of FU issued
system.switch_cpus.iq.FU_type_0::SimdMult            0      0.00%     14.40% # Type of FU issued
system.switch_cpus.iq.FU_type_0::SimdMultAcc            0      0.00%     14.40% # Type of FU issued
system.switch_cpus.iq.FU_type_0::SimdShift            0      0.00%     14.40% # Type of FU issued
system.switch_cpus.iq.FU_type_0::SimdShiftAcc            0      0.00%     14.40% # Type of FU issued
system.switch_cpus.iq.FU_type_0::SimdDiv            0      0.00%     14.40% # Type of FU issued
system.switch_cpus.iq.FU_type_0::SimdSqrt            0      0.00%     14.40% # Type of FU issued
system.switch_cpus.iq.FU_type_0::SimdFloatAdd      5476935     23.69%     38.08% # Type of FU issued
system.switch_cpus.iq.FU_type_0::SimdFloatAlu            0      0.00%     38.08% # Type of FU issued
system.switch_cpus.iq.FU_type_0::SimdFloatCmp            0      0.00%     38.08% # Type of FU issued
system.switch_cpus.iq.FU_type_0::SimdFloatCvt            0      0.00%     38.08% # Type of FU issued
system.switch_cpus.iq.FU_type_0::SimdFloatDiv        11440      0.05%     38.13% # Type of FU issued
system.switch_cpus.iq.FU_type_0::SimdFloatMisc            0      0.00%     38.13% # Type of FU issued
system.switch_cpus.iq.FU_type_0::SimdFloatMult      4002400     17.31%     55.44% # Type of FU issued
system.switch_cpus.iq.FU_type_0::SimdFloatMultAcc            0      0.00%     55.44% # Type of FU issued
system.switch_cpus.iq.FU_type_0::SimdFloatSqrt            0      0.00%     55.44% # Type of FU issued
system.switch_cpus.iq.FU_type_0::SimdReduceAdd            0      0.00%     55.44% # Type of FU issued
system.switch_cpus.iq.FU_type_0::SimdReduceAlu            0      0.00%     55.44% # Type of FU issued
system.switch_cpus.iq.FU_type_0::SimdReduceCmp            0      0.00%     55.44% # Type of FU issued
system.switch_cpus.iq.FU_type_0::SimdFloatReduceAdd            0      0.00%     55.44% # Type of FU issued
system.switch_cpus.iq.FU_type_0::SimdFloatReduceCmp            0      0.00%     55.44% # Type of FU issued
system.switch_cpus.iq.FU_type_0::SimdAes            0      0.00%     55.44% # Type of FU issued
system.switch_cpus.iq.FU_type_0::SimdAesMix            0      0.00%     55.44% # Type of FU issued
system.switch_cpus.iq.FU_type_0::SimdSha1Hash            0      0.00%     55.44% # Type of FU issued
system.switch_cpus.iq.FU_type_0::SimdSha1Hash2            0      0.00%     55.44% # Type of FU issued
system.switch_cpus.iq.FU_type_0::SimdSha256Hash            0      0.00%     55.44% # Type of FU issued
system.switch_cpus.iq.FU_type_0::SimdSha256Hash2            0      0.00%     55.44% # Type of FU issued
system.switch_cpus.iq.FU_type_0::SimdShaSigma2            0      0.00%     55.44% # Type of FU issued
system.switch_cpus.iq.FU_type_0::SimdShaSigma3            0      0.00%     55.44% # Type of FU issued
system.switch_cpus.iq.FU_type_0::SimdPredAlu            0      0.00%     55.44% # Type of FU issued
system.switch_cpus.iq.FU_type_0::MemRead       759679      3.29%     58.73% # Type of FU issued
system.switch_cpus.iq.FU_type_0::MemWrite        94684      0.41%     59.14% # Type of FU issued
system.switch_cpus.iq.FU_type_0::FloatMemRead      7176151     31.03%     90.17% # Type of FU issued
system.switch_cpus.iq.FU_type_0::FloatMemWrite      2272803      9.83%    100.00% # Type of FU issued
system.switch_cpus.iq.FU_type_0::IprAccess            0      0.00%    100.00% # Type of FU issued
system.switch_cpus.iq.FU_type_0::InstPrefetch            0      0.00%    100.00% # Type of FU issued
system.switch_cpus.iq.FU_type_0::total       23123779                       # Type of FU issued
system.switch_cpus.iq.fp_alu_accesses        22503944                       # Number of floating point alu accesses
system.switch_cpus.iq.fp_inst_queue_reads     44068871                       # Number of floating instruction queue reads
system.switch_cpus.iq.fp_inst_queue_wakeup_accesses     21443435                       # Number of floating instruction queue wakeup accesses
system.switch_cpus.iq.fp_inst_queue_writes     21671198                       # Number of floating instruction queue writes
system.switch_cpus.iq.fu_busy_cnt             1038666                       # FU busy when requested
system.switch_cpus.iq.fu_busy_rate           0.044918                       # FU busy rate (busy events/executed inst)
system.switch_cpus.iq.fu_full::No_OpClass            0      0.00%      0.00% # attempts to use FU when none available
system.switch_cpus.iq.fu_full::IntAlu             411      0.04%      0.04% # attempts to use FU when none available
system.switch_cpus.iq.fu_full::IntMult              0      0.00%      0.04% # attempts to use FU when none available
system.switch_cpus.iq.fu_full::IntDiv               0      0.00%      0.04% # attempts to use FU when none available
system.switch_cpus.iq.fu_full::FloatAdd             0      0.00%      0.04% # attempts to use FU when none available
system.switch_cpus.iq.fu_full::FloatCmp             0      0.00%      0.04% # attempts to use FU when none available
system.switch_cpus.iq.fu_full::FloatCvt             0      0.00%      0.04% # attempts to use FU when none available
system.switch_cpus.iq.fu_full::FloatMult            0      0.00%      0.04% # attempts to use FU when none available
system.switch_cpus.iq.fu_full::FloatMultAcc            0      0.00%      0.04% # attempts to use FU when none available
system.switch_cpus.iq.fu_full::FloatDiv             0      0.00%      0.04% # attempts to use FU when none available
system.switch_cpus.iq.fu_full::FloatMisc            0      0.00%      0.04% # attempts to use FU when none available
system.switch_cpus.iq.fu_full::FloatSqrt            0      0.00%      0.04% # attempts to use FU when none available
system.switch_cpus.iq.fu_full::SimdAdd              0      0.00%      0.04% # attempts to use FU when none available
system.switch_cpus.iq.fu_full::SimdAddAcc            0      0.00%      0.04% # attempts to use FU when none available
system.switch_cpus.iq.fu_full::SimdAlu              0      0.00%      0.04% # attempts to use FU when none available
system.switch_cpus.iq.fu_full::SimdCmp              0      0.00%      0.04% # attempts to use FU when none available
system.switch_cpus.iq.fu_full::SimdCvt              0      0.00%      0.04% # attempts to use FU when none available
system.switch_cpus.iq.fu_full::SimdMisc             0      0.00%      0.04% # attempts to use FU when none available
system.switch_cpus.iq.fu_full::SimdMult             0      0.00%      0.04% # attempts to use FU when none available
system.switch_cpus.iq.fu_full::SimdMultAcc            0      0.00%      0.04% # attempts to use FU when none available
system.switch_cpus.iq.fu_full::SimdShift            0      0.00%      0.04% # attempts to use FU when none available
system.switch_cpus.iq.fu_full::SimdShiftAcc            0      0.00%      0.04% # attempts to use FU when none available
system.switch_cpus.iq.fu_full::SimdDiv              0      0.00%      0.04% # attempts to use FU when none available
system.switch_cpus.iq.fu_full::SimdSqrt             0      0.00%      0.04% # attempts to use FU when none available
system.switch_cpus.iq.fu_full::SimdFloatAdd       121982     11.74%     11.78% # attempts to use FU when none available
system.switch_cpus.iq.fu_full::SimdFloatAlu            0      0.00%     11.78% # attempts to use FU when none available
system.switch_cpus.iq.fu_full::SimdFloatCmp            0      0.00%     11.78% # attempts to use FU when none available
system.switch_cpus.iq.fu_full::SimdFloatCvt            0      0.00%     11.78% # attempts to use FU when none available
system.switch_cpus.iq.fu_full::SimdFloatDiv            0      0.00%     11.78% # attempts to use FU when none available
system.switch_cpus.iq.fu_full::SimdFloatMisc            0      0.00%     11.78% # attempts to use FU when none available
system.switch_cpus.iq.fu_full::SimdFloatMult       264932     25.51%     37.29% # attempts to use FU when none available
system.switch_cpus.iq.fu_full::SimdFloatMultAcc            0      0.00%     37.29% # attempts to use FU when none available
system.switch_cpus.iq.fu_full::SimdFloatSqrt            0      0.00%     37.29% # attempts to use FU when none available
system.switch_cpus.iq.fu_full::SimdReduceAdd            0      0.00%     37.29% # attempts to use FU when none available
system.switch_cpus.iq.fu_full::SimdReduceAlu            0      0.00%     37.29% # attempts to use FU when none available
system.switch_cpus.iq.fu_full::SimdReduceCmp            0      0.00%     37.29% # attempts to use FU when none available
system.switch_cpus.iq.fu_full::SimdFloatReduceAdd            0      0.00%     37.29% # attempts to use FU when none available
system.switch_cpus.iq.fu_full::SimdFloatReduceCmp            0      0.00%     37.29% # attempts to use FU when none available
system.switch_cpus.iq.fu_full::SimdAes              0      0.00%     37.29% # attempts to use FU when none available
system.switch_cpus.iq.fu_full::SimdAesMix            0      0.00%     37.29% # attempts to use FU when none available
system.switch_cpus.iq.fu_full::SimdSha1Hash            0      0.00%     37.29% # attempts to use FU when none available
system.switch_cpus.iq.fu_full::SimdSha1Hash2            0      0.00%     37.29% # attempts to use FU when none available
system.switch_cpus.iq.fu_full::SimdSha256Hash            0      0.00%     37.29% # attempts to use FU when none available
system.switch_cpus.iq.fu_full::SimdSha256Hash2            0      0.00%     37.29% # attempts to use FU when none available
system.switch_cpus.iq.fu_full::SimdShaSigma2            0      0.00%     37.29% # attempts to use FU when none available
system.switch_cpus.iq.fu_full::SimdShaSigma3            0      0.00%     37.29% # attempts to use FU when none available
system.switch_cpus.iq.fu_full::SimdPredAlu            0      0.00%     37.29% # attempts to use FU when none available
system.switch_cpus.iq.fu_full::MemRead          87003      8.38%     45.67% # attempts to use FU when none available
system.switch_cpus.iq.fu_full::MemWrite         11718      1.13%     46.80% # attempts to use FU when none available
system.switch_cpus.iq.fu_full::FloatMemRead       498717     48.02%     94.81% # attempts to use FU when none available
system.switch_cpus.iq.fu_full::FloatMemWrite        53903      5.19%    100.00% # attempts to use FU when none available
system.switch_cpus.iq.fu_full::IprAccess            0      0.00%    100.00% # attempts to use FU when none available
system.switch_cpus.iq.fu_full::InstPrefetch            0      0.00%    100.00% # attempts to use FU when none available
system.switch_cpus.iq.int_alu_accesses        1617350                       # Number of integer alu accesses
system.switch_cpus.iq.int_inst_queue_reads     16496893                       # Number of integer instruction queue reads
system.switch_cpus.iq.int_inst_queue_wakeup_accesses      1476134                       # Number of integer instruction queue wakeup accesses
system.switch_cpus.iq.int_inst_queue_writes      1936761                       # Number of integer instruction queue writes
system.switch_cpus.iq.iqInstsAdded           23038701                       # Number of instructions added to the IQ (excludes non-spec)
system.switch_cpus.iq.iqInstsIssued          23123779                       # Number of instructions issued
system.switch_cpus.iq.iqNonSpecInstsAdded         3845                       # Number of non-speculative instructions added to the IQ
system.switch_cpus.iq.iqSquashedInstsExamined       565163                       # Number of squashed instructions iterated over during squash; mainly for profiling
system.switch_cpus.iq.iqSquashedInstsIssued          597                       # Number of squashed instructions issued
system.switch_cpus.iq.iqSquashedNonSpecRemoved         3525                       # Number of squashed non-spec instructions that were removed
system.switch_cpus.iq.iqSquashedOperandsExamined       275999                       # Number of squashed operands that are examined and possibly removed from graph
system.switch_cpus.iq.issued_per_cycle::samples     13278949                       # Number of insts issued each cycle
system.switch_cpus.iq.issued_per_cycle::mean     1.741386                       # Number of insts issued each cycle
system.switch_cpus.iq.issued_per_cycle::stdev     2.522337                       # Number of insts issued each cycle
system.switch_cpus.iq.issued_per_cycle::underflows            0      0.00%      0.00% # Number of insts issued each cycle
system.switch_cpus.iq.issued_per_cycle::0      7897246     59.47%     59.47% # Number of insts issued each cycle
system.switch_cpus.iq.issued_per_cycle::1       687969      5.18%     64.65% # Number of insts issued each cycle
system.switch_cpus.iq.issued_per_cycle::2       711353      5.36%     70.01% # Number of insts issued each cycle
system.switch_cpus.iq.issued_per_cycle::3       627301      4.72%     74.73% # Number of insts issued each cycle
system.switch_cpus.iq.issued_per_cycle::4       890873      6.71%     81.44% # Number of insts issued each cycle
system.switch_cpus.iq.issued_per_cycle::5       707335      5.33%     86.77% # Number of insts issued each cycle
system.switch_cpus.iq.issued_per_cycle::6       776698      5.85%     92.62% # Number of insts issued each cycle
system.switch_cpus.iq.issued_per_cycle::7       470546      3.54%     96.16% # Number of insts issued each cycle
system.switch_cpus.iq.issued_per_cycle::8       509628      3.84%    100.00% # Number of insts issued each cycle
system.switch_cpus.iq.issued_per_cycle::overflows            0      0.00%    100.00% # Number of insts issued each cycle
system.switch_cpus.iq.issued_per_cycle::min_value            0                       # Number of insts issued each cycle
system.switch_cpus.iq.issued_per_cycle::max_value            8                       # Number of insts issued each cycle
system.switch_cpus.iq.issued_per_cycle::total     13278949                       # Number of insts issued each cycle
system.switch_cpus.iq.rate                   1.736974                       # Inst issue rate
system.switch_cpus.iq.vec_alu_accesses              0                       # Number of vector alu accesses
system.switch_cpus.iq.vec_inst_queue_reads            0                       # Number of vector instruction queue reads
system.switch_cpus.iq.vec_inst_queue_wakeup_accesses            0                       # Number of vector instruction queue wakeup accesses
system.switch_cpus.iq.vec_inst_queue_writes            0                       # Number of vector instruction queue writes
system.switch_cpus.itb.rdAccesses                   0                       # TLB accesses on read requests
system.switch_cpus.itb.rdMisses                     0                       # TLB misses on read requests
system.switch_cpus.itb.wrAccesses             1084041                       # TLB accesses on write requests
system.switch_cpus.itb.wrMisses                    10                       # TLB misses on write requests
system.switch_cpus.memDep0.conflictingLoads        24092                       # Number of conflicting loads.
system.switch_cpus.memDep0.conflictingStores        96707                       # Number of conflicting stores.
system.switch_cpus.memDep0.insertedLoads      7789903                       # Number of loads inserted to the mem dependence unit.
system.switch_cpus.memDep0.insertedStores      2418883                       # Number of stores inserted to the mem dependence unit.
system.switch_cpus.misc_regfile_reads        10609196                       # number of misc regfile reads
system.switch_cpus.misc_regfile_writes              1                       # number of misc regfile writes
system.switch_cpus.numCycles                 13312677                       # number of cpu cycles simulated
system.switch_cpus.numWorkItemsCompleted            0                       # number of work items this cpu completed
system.switch_cpus.numWorkItemsStarted              0                       # number of work items this cpu started
system.switch_cpus.rename.BlockCycles         3227098                       # Number of cycles rename is blocking
system.switch_cpus.rename.CommittedMaps      20390922                       # Number of HB maps that are committed
system.switch_cpus.rename.IQFullEvents         139001                       # Number of times rename has blocked due to IQ full
system.switch_cpus.rename.IdleCycles          1025256                       # Number of cycles rename is idle
system.switch_cpus.rename.LQFullEvents        2160237                       # Number of times rename has blocked due to LQ full
system.switch_cpus.rename.ROBFullEvents         36318                       # Number of times rename has blocked due to ROB full
system.switch_cpus.rename.RenameLookups      67937105                       # Number of register rename lookups that rename has made
system.switch_cpus.rename.RenamedInsts       23064349                       # Number of instructions processed by rename
system.switch_cpus.rename.RenamedOperands     20905974                       # Number of destination operands rename has renamed
system.switch_cpus.rename.RunCycles           2810674                       # Number of cycles rename is running
system.switch_cpus.rename.SQFullEvents        3825794                       # Number of times rename has blocked due to SQ full
system.switch_cpus.rename.SquashCycles           6075                       # Number of cycles rename is squashing
system.switch_cpus.rename.UnblockCycles       6209504                       # Number of cycles rename is unblocking
system.switch_cpus.rename.UndoneMaps           514996                       # Number of HB maps that are undone due to squashing
system.switch_cpus.rename.fp_rename_lookups     36040120                       # Number of floating rename lookups
system.switch_cpus.rename.int_rename_lookups     21167834                       # Number of integer rename lookups
system.switch_cpus.rename.serializeStallCycles            0                       # count of cycles rename stalled for serializing inst
system.switch_cpus.rename.serializingInsts            0                       # count of serializing insts renamed
system.switch_cpus.rename.skidInsts           3800612                       # count of insts added to the skid buffer
system.switch_cpus.rename.tempSerializingInsts            0                       # count of temporary serializing insts renamed
system.switch_cpus.rob.rob_reads             34544657                       # The number of ROB reads
system.switch_cpus.rob.rob_writes            45954539                       # The number of ROB writes
system.switch_cpus.timesIdled                     365                       # Number of times that the entire CPU went into an idle state and unscheduled itself
system.tol2bus.snoop_filter.hit_multi_requests            0                       # Number of requests hitting in the snoop filter with multiple (>1) holders of the requested data.
system.tol2bus.snoop_filter.hit_multi_snoops            0                       # Number of snoops hitting in the snoop filter with multiple (>1) holders of the requested data.
system.tol2bus.snoop_filter.hit_single_requests       110720                       # Number of requests hitting in the snoop filter with a single holder of the requested data.
system.tol2bus.snoop_filter.hit_single_snoops        47344                       # Number of snoops hitting in the snoop filter with a single holder of the requested data.
system.tol2bus.snoop_filter.tot_requests       222746                       # Total number of requests made to the snoop filter.
system.tol2bus.snoop_filter.tot_snoops          47344                       # Total number of snoops made to the snoop filter.
system.membus.pwrStateResidencyTicks::UNDEFINED 560740683799000                       # Cumulative time (in ticks) in various power states
system.membus.trans_dist::ReadResp              80124                       # Transaction distribution
system.membus.trans_dist::WritebackDirty        27895                       # Transaction distribution
system.membus.trans_dist::CleanEvict            66388                       # Transaction distribution
system.membus.trans_dist::ReadExReq             18747                       # Transaction distribution
system.membus.trans_dist::ReadExResp            18747                       # Transaction distribution
system.membus.trans_dist::ReadSharedReq         80124                       # Transaction distribution
system.membus.pkt_count_system.l2.mem_side::system.mem_ctrls.port       292025                       # Packet count per connected master and slave (bytes)
system.membus.pkt_count_system.l2.mem_side::total       292025                       # Packet count per connected master and slave (bytes)
system.membus.pkt_count::total                 292025                       # Packet count per connected master and slave (bytes)
system.membus.pkt_size_system.l2.mem_side::system.mem_ctrls.port      8113024                       # Cumulative packet size per connected master and slave (bytes)
system.membus.pkt_size_system.l2.mem_side::total      8113024                       # Cumulative packet size per connected master and slave (bytes)
system.membus.pkt_size::total                 8113024                       # Cumulative packet size per connected master and slave (bytes)
system.membus.snoops                                0                       # Total snoops (count)
system.membus.snoopTraffic                          0                       # Total snoop traffic (bytes)
system.membus.snoop_fanout::samples             98871                       # Request fanout histogram
system.membus.snoop_fanout::mean                    0                       # Request fanout histogram
system.membus.snoop_fanout::stdev                   0                       # Request fanout histogram
system.membus.snoop_fanout::underflows              0      0.00%      0.00% # Request fanout histogram
system.membus.snoop_fanout::0                   98871    100.00%    100.00% # Request fanout histogram
system.membus.snoop_fanout::1                       0      0.00%    100.00% # Request fanout histogram
system.membus.snoop_fanout::overflows               0      0.00%    100.00% # Request fanout histogram
system.membus.snoop_fanout::min_value               0                       # Request fanout histogram
system.membus.snoop_fanout::max_value               0                       # Request fanout histogram
system.membus.snoop_fanout::total               98871                       # Request fanout histogram
system.membus.reqLayer2.occupancy           323205627                       # Layer occupancy (ticks)
system.membus.reqLayer2.utilization               4.9                       # Layer utilization (%)
system.membus.respLayer1.occupancy          529785806                       # Layer occupancy (ticks)
system.membus.respLayer1.utilization              8.0                       # Layer utilization (%)
system.switch_cpus.pwrStateResidencyTicks::OFF   6656349000                       # Cumulative time (in ticks) in various power states
system.switch_cpus.dtb.walker.pwrStateResidencyTicks::UNDEFINED 560740683799000                       # Cumulative time (in ticks) in various power states
system.switch_cpus.itb.walker.pwrStateResidencyTicks::UNDEFINED 560740683799000                       # Cumulative time (in ticks) in various power states
system.tol2bus.pwrStateResidencyTicks::UNDEFINED 560740683799000                       # Cumulative time (in ticks) in various power states
system.tol2bus.trans_dist::ReadResp             81125                       # Transaction distribution
system.tol2bus.trans_dist::WritebackDirty        67928                       # Transaction distribution
system.tol2bus.trans_dist::WritebackClean          118                       # Transaction distribution
system.tol2bus.trans_dist::CleanEvict          151789                       # Transaction distribution
system.tol2bus.trans_dist::HardPFReq            55444                       # Transaction distribution
system.tol2bus.trans_dist::ReadExReq            30901                       # Transaction distribution
system.tol2bus.trans_dist::ReadExResp           30901                       # Transaction distribution
system.tol2bus.trans_dist::ReadCleanReq           400                       # Transaction distribution
system.tol2bus.trans_dist::ReadSharedReq        80725                       # Transaction distribution
system.tol2bus.pkt_count_system.cpu.icache.mem_side::system.l2.cpu_side          918                       # Packet count per connected master and slave (bytes)
system.tol2bus.pkt_count_system.cpu.dcache.mem_side::system.l2.cpu_side       333854                       # Packet count per connected master and slave (bytes)
system.tol2bus.pkt_count::total                334772                       # Packet count per connected master and slave (bytes)
system.tol2bus.pkt_size_system.cpu.icache.mem_side::system.l2.cpu_side        33152                       # Cumulative packet size per connected master and slave (bytes)
system.tol2bus.pkt_size_system.cpu.dcache.mem_side::system.l2.cpu_side      9706176                       # Cumulative packet size per connected master and slave (bytes)
system.tol2bus.pkt_size::total                9739328                       # Cumulative packet size per connected master and slave (bytes)
system.tol2bus.snoops                          164559                       # Total snoops (count)
system.tol2bus.snoopTraffic                   1785280                       # Total snoop traffic (bytes)
system.tol2bus.snoop_fanout::samples           276585                       # Request fanout histogram
system.tol2bus.snoop_fanout::mean            0.171173                       # Request fanout histogram
system.tol2bus.snoop_fanout::stdev           0.376661                       # Request fanout histogram
system.tol2bus.snoop_fanout::underflows             0      0.00%      0.00% # Request fanout histogram
system.tol2bus.snoop_fanout::0                 229241     82.88%     82.88% # Request fanout histogram
system.tol2bus.snoop_fanout::1                  47344     17.12%    100.00% # Request fanout histogram
system.tol2bus.snoop_fanout::2                      0      0.00%    100.00% # Request fanout histogram
system.tol2bus.snoop_fanout::3                      0      0.00%    100.00% # Request fanout histogram
system.tol2bus.snoop_fanout::4                      0      0.00%    100.00% # Request fanout histogram
system.tol2bus.snoop_fanout::overflows              0      0.00%    100.00% # Request fanout histogram
system.tol2bus.snoop_fanout::min_value              0                       # Request fanout histogram
system.tol2bus.snoop_fanout::max_value              1                       # Request fanout histogram
system.tol2bus.snoop_fanout::total             276585                       # Request fanout histogram
system.tol2bus.reqLayer0.occupancy          151521500                       # Layer occupancy (ticks)
system.tol2bus.reqLayer0.utilization              2.3                       # Layer utilization (%)
system.tol2bus.respLayer1.occupancy         167434500                       # Layer occupancy (ticks)
system.tol2bus.respLayer1.utilization             2.5                       # Layer utilization (%)
system.tol2bus.respLayer0.occupancy            597000                       # Layer occupancy (ticks)
system.tol2bus.respLayer0.utilization             0.0                       # Layer utilization (%)
system.voltage_domain.voltage                       1                       # Voltage in Volts
system.clk_domain.clock                          1000                       # Clock period in ticks
system.l2.pwrStateResidencyTicks::UNDEFINED 560740683799000                       # Cumulative time (in ticks) in various power states
system.l2.demand_hits::.switch_cpus.inst           33                       # number of demand (read+write) hits
system.l2.demand_hits::.switch_cpus.data        44706                       # number of demand (read+write) hits
system.l2.demand_hits::total                    44739                       # number of demand (read+write) hits
system.l2.overall_hits::.switch_cpus.inst           33                       # number of overall hits
system.l2.overall_hits::.switch_cpus.data        44706                       # number of overall hits
system.l2.overall_hits::total                   44739                       # number of overall hits
system.l2.demand_misses::.cpu.inst                  2                       # number of demand (read+write) misses
system.l2.demand_misses::.cpu.data                  3                       # number of demand (read+write) misses
system.l2.demand_misses::.switch_cpus.inst          365                       # number of demand (read+write) misses
system.l2.demand_misses::.switch_cpus.data        66917                       # number of demand (read+write) misses
system.l2.demand_misses::total                  67287                       # number of demand (read+write) misses
system.l2.overall_misses::.cpu.inst                 2                       # number of overall misses
system.l2.overall_misses::.cpu.data                 3                       # number of overall misses
system.l2.overall_misses::.switch_cpus.inst          365                       # number of overall misses
system.l2.overall_misses::.switch_cpus.data        66917                       # number of overall misses
system.l2.overall_misses::total                 67287                       # number of overall misses
system.l2.demand_miss_latency::.switch_cpus.inst     28462500                       # number of demand (read+write) miss cycles
system.l2.demand_miss_latency::.switch_cpus.data   6845758000                       # number of demand (read+write) miss cycles
system.l2.demand_miss_latency::total       6874220500                       # number of demand (read+write) miss cycles
system.l2.overall_miss_latency::.switch_cpus.inst     28462500                       # number of overall miss cycles
system.l2.overall_miss_latency::.switch_cpus.data   6845758000                       # number of overall miss cycles
system.l2.overall_miss_latency::total      6874220500                       # number of overall miss cycles
system.l2.demand_accesses::.cpu.inst                2                       # number of demand (read+write) accesses
system.l2.demand_accesses::.cpu.data                3                       # number of demand (read+write) accesses
system.l2.demand_accesses::.switch_cpus.inst          398                       # number of demand (read+write) accesses
system.l2.demand_accesses::.switch_cpus.data       111623                       # number of demand (read+write) accesses
system.l2.demand_accesses::total               112026                       # number of demand (read+write) accesses
system.l2.overall_accesses::.cpu.inst               2                       # number of overall (read+write) accesses
system.l2.overall_accesses::.cpu.data               3                       # number of overall (read+write) accesses
system.l2.overall_accesses::.switch_cpus.inst          398                       # number of overall (read+write) accesses
system.l2.overall_accesses::.switch_cpus.data       111623                       # number of overall (read+write) accesses
system.l2.overall_accesses::total              112026                       # number of overall (read+write) accesses
system.l2.demand_miss_rate::.cpu.inst               1                       # miss rate for demand accesses
system.l2.demand_miss_rate::.cpu.data               1                       # miss rate for demand accesses
system.l2.demand_miss_rate::.switch_cpus.inst     0.917085                       # miss rate for demand accesses
system.l2.demand_miss_rate::.switch_cpus.data     0.599491                       # miss rate for demand accesses
system.l2.demand_miss_rate::total            0.600637                       # miss rate for demand accesses
system.l2.overall_miss_rate::.cpu.inst              1                       # miss rate for overall accesses
system.l2.overall_miss_rate::.cpu.data              1                       # miss rate for overall accesses
system.l2.overall_miss_rate::.switch_cpus.inst     0.917085                       # miss rate for overall accesses
system.l2.overall_miss_rate::.switch_cpus.data     0.599491                       # miss rate for overall accesses
system.l2.overall_miss_rate::total           0.600637                       # miss rate for overall accesses
system.l2.demand_avg_miss_latency::.switch_cpus.inst 77979.452055                       # average overall miss latency
system.l2.demand_avg_miss_latency::.switch_cpus.data 102302.225145                       # average overall miss latency
system.l2.demand_avg_miss_latency::total 102162.683728                       # average overall miss latency
system.l2.overall_avg_miss_latency::.switch_cpus.inst 77979.452055                       # average overall miss latency
system.l2.overall_avg_miss_latency::.switch_cpus.data 102302.225145                       # average overall miss latency
system.l2.overall_avg_miss_latency::total 102162.683728                       # average overall miss latency
system.l2.blocked_cycles::no_mshrs                  0                       # number of cycles access was blocked
system.l2.blocked_cycles::no_targets                0                       # number of cycles access was blocked
system.l2.blocked::no_mshrs                         0                       # number of cycles access was blocked
system.l2.blocked::no_targets                       0                       # number of cycles access was blocked
system.l2.avg_blocked_cycles::no_mshrs            nan                       # average number of cycles each access was blocked
system.l2.avg_blocked_cycles::no_targets          nan                       # average number of cycles each access was blocked
system.l2.unused_prefetches                      6769                       # number of HardPF blocks evicted w/o reference
system.l2.writebacks::.writebacks               27895                       # number of writebacks
system.l2.writebacks::total                     27895                       # number of writebacks
system.l2.demand_mshr_hits::.switch_cpus.data            4                       # number of demand (read+write) MSHR hits
system.l2.demand_mshr_hits::total                   4                       # number of demand (read+write) MSHR hits
system.l2.overall_mshr_hits::.switch_cpus.data            4                       # number of overall MSHR hits
system.l2.overall_mshr_hits::total                  4                       # number of overall MSHR hits
system.l2.demand_mshr_misses::.switch_cpus.inst          365                       # number of demand (read+write) MSHR misses
system.l2.demand_mshr_misses::.switch_cpus.data        66913                       # number of demand (read+write) MSHR misses
system.l2.demand_mshr_misses::total             67278                       # number of demand (read+write) MSHR misses
system.l2.overall_mshr_misses::.l2.prefetcher        31731                       # number of overall MSHR misses
system.l2.overall_mshr_misses::.switch_cpus.inst          365                       # number of overall MSHR misses
system.l2.overall_mshr_misses::.switch_cpus.data        66913                       # number of overall MSHR misses
system.l2.overall_mshr_misses::total            99009                       # number of overall MSHR misses
system.l2.demand_mshr_miss_latency::.switch_cpus.inst     24812500                       # number of demand (read+write) MSHR miss cycles
system.l2.demand_mshr_miss_latency::.switch_cpus.data   6176274500                       # number of demand (read+write) MSHR miss cycles
system.l2.demand_mshr_miss_latency::total   6201087000                       # number of demand (read+write) MSHR miss cycles
system.l2.overall_mshr_miss_latency::.l2.prefetcher   2759489483                       # number of overall MSHR miss cycles
system.l2.overall_mshr_miss_latency::.switch_cpus.inst     24812500                       # number of overall MSHR miss cycles
system.l2.overall_mshr_miss_latency::.switch_cpus.data   6176274500                       # number of overall MSHR miss cycles
system.l2.overall_mshr_miss_latency::total   8960576483                       # number of overall MSHR miss cycles
system.l2.demand_mshr_miss_rate::.switch_cpus.inst     0.917085                       # mshr miss rate for demand accesses
system.l2.demand_mshr_miss_rate::.switch_cpus.data     0.599455                       # mshr miss rate for demand accesses
system.l2.demand_mshr_miss_rate::total       0.600557                       # mshr miss rate for demand accesses
system.l2.overall_mshr_miss_rate::.l2.prefetcher          inf                       # mshr miss rate for overall accesses
system.l2.overall_mshr_miss_rate::.switch_cpus.inst     0.917085                       # mshr miss rate for overall accesses
system.l2.overall_mshr_miss_rate::.switch_cpus.data     0.599455                       # mshr miss rate for overall accesses
system.l2.overall_mshr_miss_rate::total      0.883804                       # mshr miss rate for overall accesses
system.l2.demand_avg_mshr_miss_latency::.switch_cpus.inst 67979.452055                       # average overall mshr miss latency
system.l2.demand_avg_mshr_miss_latency::.switch_cpus.data 92303.057702                       # average overall mshr miss latency
system.l2.demand_avg_mshr_miss_latency::total 92171.096049                       # average overall mshr miss latency
system.l2.overall_avg_mshr_miss_latency::.l2.prefetcher 86965.096688                       # average overall mshr miss latency
system.l2.overall_avg_mshr_miss_latency::.switch_cpus.inst 67979.452055                       # average overall mshr miss latency
system.l2.overall_avg_mshr_miss_latency::.switch_cpus.data 92303.057702                       # average overall mshr miss latency
system.l2.overall_avg_mshr_miss_latency::total 90502.646052                       # average overall mshr miss latency
system.l2.replacements                         109115                       # number of replacements
system.l2.WritebackDirty_hits::.writebacks        40033                       # number of WritebackDirty hits
system.l2.WritebackDirty_hits::total            40033                       # number of WritebackDirty hits
system.l2.WritebackDirty_accesses::.writebacks        40033                       # number of WritebackDirty accesses(hits+misses)
system.l2.WritebackDirty_accesses::total        40033                       # number of WritebackDirty accesses(hits+misses)
system.l2.WritebackClean_hits::.writebacks          118                       # number of WritebackClean hits
system.l2.WritebackClean_hits::total              118                       # number of WritebackClean hits
system.l2.WritebackClean_accesses::.writebacks          118                       # number of WritebackClean accesses(hits+misses)
system.l2.WritebackClean_accesses::total          118                       # number of WritebackClean accesses(hits+misses)
system.l2.CleanEvict_mshr_misses::.writebacks        32369                       # number of CleanEvict MSHR misses
system.l2.CleanEvict_mshr_misses::total         32369                       # number of CleanEvict MSHR misses
system.l2.CleanEvict_mshr_miss_rate::.writebacks          inf                       # mshr miss rate for CleanEvict accesses
system.l2.CleanEvict_mshr_miss_rate::total          inf                       # mshr miss rate for CleanEvict accesses
system.l2.HardPFReq_mshr_misses::.l2.prefetcher        31731                       # number of HardPFReq MSHR misses
system.l2.HardPFReq_mshr_misses::total          31731                       # number of HardPFReq MSHR misses
system.l2.HardPFReq_mshr_miss_latency::.l2.prefetcher   2759489483                       # number of HardPFReq MSHR miss cycles
system.l2.HardPFReq_mshr_miss_latency::total   2759489483                       # number of HardPFReq MSHR miss cycles
system.l2.HardPFReq_mshr_miss_rate::.l2.prefetcher          inf                       # mshr miss rate for HardPFReq accesses
system.l2.HardPFReq_mshr_miss_rate::total          inf                       # mshr miss rate for HardPFReq accesses
system.l2.HardPFReq_avg_mshr_miss_latency::.l2.prefetcher 86965.096688                       # average HardPFReq mshr miss latency
system.l2.HardPFReq_avg_mshr_miss_latency::total 86965.096688                       # average HardPFReq mshr miss latency
system.l2.ReadExReq_hits::.switch_cpus.data        12154                       # number of ReadExReq hits
system.l2.ReadExReq_hits::total                 12154                       # number of ReadExReq hits
system.l2.ReadExReq_misses::.cpu.data               2                       # number of ReadExReq misses
system.l2.ReadExReq_misses::.switch_cpus.data        18745                       # number of ReadExReq misses
system.l2.ReadExReq_misses::total               18747                       # number of ReadExReq misses
system.l2.ReadExReq_miss_latency::.switch_cpus.data   1857842500                       # number of ReadExReq miss cycles
system.l2.ReadExReq_miss_latency::total    1857842500                       # number of ReadExReq miss cycles
system.l2.ReadExReq_accesses::.cpu.data             2                       # number of ReadExReq accesses(hits+misses)
system.l2.ReadExReq_accesses::.switch_cpus.data        30899                       # number of ReadExReq accesses(hits+misses)
system.l2.ReadExReq_accesses::total             30901                       # number of ReadExReq accesses(hits+misses)
system.l2.ReadExReq_miss_rate::.cpu.data            1                       # miss rate for ReadExReq accesses
system.l2.ReadExReq_miss_rate::.switch_cpus.data     0.606654                       # miss rate for ReadExReq accesses
system.l2.ReadExReq_miss_rate::total         0.606679                       # miss rate for ReadExReq accesses
system.l2.ReadExReq_avg_miss_latency::.switch_cpus.data 99111.363030                       # average ReadExReq miss latency
[...]
system.cpu.dtb_walker_cache.pwrStateResidencyTicks::UNDEFINED 560761042234500                       # Cumulative time (in ticks) in various power states
system.cpu.dtb_walker_cache.blocked_cycles::no_mshrs            0                       # number of cycles access was blocked
system.cpu.dtb_walker_cache.blocked_cycles::no_targets            0                       # number of cycles access was blocked
system.cpu.dtb_walker_cache.blocked::no_mshrs            0                       # number of cycles access was blocked
system.cpu.dtb_walker_cache.blocked::no_targets            0                       # number of cycles access was blocked
system.cpu.dtb_walker_cache.avg_blocked_cycles::no_mshrs          nan                       # average number of cycles each access was blocked
system.cpu.dtb_walker_cache.avg_blocked_cycles::no_targets          nan                       # average number of cycles each access was blocked
system.cpu.dtb_walker_cache.replacements            0                       # number of replacements
system.cpu.dtb_walker_cache.tags.pwrStateResidencyTicks::UNDEFINED 560761042234500                       # Cumulative time (in ticks) in various power states
system.cpu.dtb_walker_cache.tags.tagsinuse            0                       # Cycle average of tags in use
system.cpu.dtb_walker_cache.tags.total_refs            0                       # Total number of references to valid blocks.
system.cpu.dtb_walker_cache.tags.sampled_refs            0                       # Sample count of references to valid blocks.
system.cpu.dtb_walker_cache.tags.avg_refs          nan                       # Average number of references to valid blocks.
system.cpu.dtb_walker_cache.tags.warmup_cycle            0                       # Cycle when the warmup percentage was hit.
system.cpu.dtb_walker_cache.tags.tag_accesses            0                       # Number of tag accesses
system.cpu.dtb_walker_cache.tags.data_accesses            0                       # Number of data accesses
system.cpu.dcache.pwrStateResidencyTicks::UNDEFINED 560761042234500                       # Cumulative time (in ticks) in various power states
system.cpu.dcache.demand_hits::.cpu.data            3                       # number of demand (read+write) hits
system.cpu.dcache.demand_hits::.switch_cpus.data     37004544                       # number of demand (read+write) hits
system.cpu.dcache.demand_hits::total         37004547                       # number of demand (read+write) hits
system.cpu.dcache.overall_hits::.cpu.data            3                       # number of overall hits
system.cpu.dcache.overall_hits::.switch_cpus.data     37063671                       # number of overall hits
system.cpu.dcache.overall_hits::total        37063674                       # number of overall hits
system.cpu.dcache.demand_misses::.cpu.data            3                       # number of demand (read+write) misses
system.cpu.dcache.demand_misses::.switch_cpus.data       651875                       # number of demand (read+write) misses
system.cpu.dcache.demand_misses::total         651878                       # number of demand (read+write) misses
system.cpu.dcache.overall_misses::.cpu.data            3                       # number of overall misses
system.cpu.dcache.overall_misses::.switch_cpus.data       666340                       # number of overall misses
system.cpu.dcache.overall_misses::total        666343                       # number of overall misses
system.cpu.dcache.demand_miss_latency::.switch_cpus.data  42425817305                       # number of demand (read+write) miss cycles
system.cpu.dcache.demand_miss_latency::total  42425817305                       # number of demand (read+write) miss cycles
system.cpu.dcache.overall_miss_latency::.switch_cpus.data  42425817305                       # number of overall miss cycles
system.cpu.dcache.overall_miss_latency::total  42425817305                       # number of overall miss cycles
system.cpu.dcache.demand_accesses::.cpu.data            6                       # number of demand (read+write) accesses
system.cpu.dcache.demand_accesses::.switch_cpus.data     37656419                       # number of demand (read+write) accesses
system.cpu.dcache.demand_accesses::total     37656425                       # number of demand (read+write) accesses
system.cpu.dcache.overall_accesses::.cpu.data            6                       # number of overall (read+write) accesses
system.cpu.dcache.overall_accesses::.switch_cpus.data     37730011                       # number of overall (read+write) accesses
system.cpu.dcache.overall_accesses::total     37730017                       # number of overall (read+write) accesses
system.cpu.dcache.demand_miss_rate::.cpu.data     0.500000                       # miss rate for demand accesses
system.cpu.dcache.demand_miss_rate::.switch_cpus.data     0.017311                       # miss rate for demand accesses
system.cpu.dcache.demand_miss_rate::total     0.017311                       # miss rate for demand accesses
system.cpu.dcache.overall_miss_rate::.cpu.data     0.500000                       # miss rate for overall accesses
system.cpu.dcache.overall_miss_rate::.switch_cpus.data     0.017661                       # miss rate for overall accesses
system.cpu.dcache.overall_miss_rate::total     0.017661                       # miss rate for overall accesses
system.cpu.dcache.demand_avg_miss_latency::.switch_cpus.data 65082.749461                       # average overall miss latency
system.cpu.dcache.demand_avg_miss_latency::total 65082.449945                       # average overall miss latency
system.cpu.dcache.overall_avg_miss_latency::.switch_cpus.data 63669.924220                       # average overall miss latency
system.cpu.dcache.overall_avg_miss_latency::total 63669.637567                       # average overall miss latency
system.cpu.dcache.blocked_cycles::no_mshrs      5260037                       # number of cycles access was blocked
system.cpu.dcache.blocked_cycles::no_targets          153                       # number of cycles access was blocked
system.cpu.dcache.blocked::no_mshrs            114474                       # number of cycles access was blocked
system.cpu.dcache.blocked::no_targets               3                       # number of cycles access was blocked
system.cpu.dcache.avg_blocked_cycles::no_mshrs    45.949622                       # average number of cycles each access was blocked
system.cpu.dcache.avg_blocked_cycles::no_targets           51                       # average number of cycles each access was blocked
system.cpu.dcache.writebacks::.writebacks       165327                       # number of writebacks
system.cpu.dcache.writebacks::total            165327                       # number of writebacks
system.cpu.dcache.demand_mshr_hits::.switch_cpus.data       208460                       # number of demand (read+write) MSHR hits
system.cpu.dcache.demand_mshr_hits::total       208460                       # number of demand (read+write) MSHR hits
system.cpu.dcache.overall_mshr_hits::.switch_cpus.data       208460                       # number of overall MSHR hits
system.cpu.dcache.overall_mshr_hits::total       208460                       # number of overall MSHR hits
system.cpu.dcache.demand_mshr_misses::.switch_cpus.data       443415                       # number of demand (read+write) MSHR misses
system.cpu.dcache.demand_mshr_misses::total       443415                       # number of demand (read+write) MSHR misses
system.cpu.dcache.overall_mshr_misses::.switch_cpus.data       448854                       # number of overall MSHR misses
system.cpu.dcache.overall_mshr_misses::total       448854                       # number of overall MSHR misses
system.cpu.dcache.demand_mshr_miss_latency::.switch_cpus.data  29980482305                       # number of demand (read+write) MSHR miss cycles
system.cpu.dcache.demand_mshr_miss_latency::total  29980482305                       # number of demand (read+write) MSHR miss cycles
system.cpu.dcache.overall_mshr_miss_latency::.switch_cpus.data  30476059305                       # number of overall MSHR miss cycles
system.cpu.dcache.overall_mshr_miss_latency::total  30476059305                       # number of overall MSHR miss cycles
system.cpu.dcache.demand_mshr_miss_rate::.switch_cpus.data     0.011775                       # mshr miss rate for demand accesses
system.cpu.dcache.demand_mshr_miss_rate::total     0.011775                       # mshr miss rate for demand accesses
system.cpu.dcache.overall_mshr_miss_rate::.switch_cpus.data     0.011896                       # mshr miss rate for overall accesses
system.cpu.dcache.overall_mshr_miss_rate::total     0.011896                       # mshr miss rate for overall accesses
system.cpu.dcache.demand_avg_mshr_miss_latency::.switch_cpus.data 67612.693087                       # average overall mshr miss latency
system.cpu.dcache.demand_avg_mshr_miss_latency::total 67612.693087                       # average overall mshr miss latency
system.cpu.dcache.overall_avg_mshr_miss_latency::.switch_cpus.data 67897.488504                       # average overall mshr miss latency
system.cpu.dcache.overall_avg_mshr_miss_latency::total 67897.488504                       # average overall mshr miss latency
system.cpu.dcache.replacements                 447833                       # number of replacements
system.cpu.dcache.ReadReq_hits::.cpu.data            1                       # number of ReadReq hits
system.cpu.dcache.ReadReq_hits::.switch_cpus.data     28149661                       # number of ReadReq hits
system.cpu.dcache.ReadReq_hits::total        28149662                       # number of ReadReq hits
system.cpu.dcache.ReadReq_misses::.cpu.data            1                       # number of ReadReq misses
system.cpu.dcache.ReadReq_misses::.switch_cpus.data       524041                       # number of ReadReq misses
system.cpu.dcache.ReadReq_misses::total        524042                       # number of ReadReq misses
system.cpu.dcache.ReadReq_miss_latency::.switch_cpus.data  33891125500                       # number of ReadReq miss cycles
system.cpu.dcache.ReadReq_miss_latency::total  33891125500                       # number of ReadReq miss cycles
system.cpu.dcache.ReadReq_accesses::.cpu.data            2                       # number of ReadReq accesses(hits+misses)
system.cpu.dcache.ReadReq_accesses::.switch_cpus.data     28673702                       # number of ReadReq accesses(hits+misses)
system.cpu.dcache.ReadReq_accesses::total     28673704                       # number of ReadReq accesses(hits+misses)
system.cpu.dcache.ReadReq_miss_rate::.cpu.data     0.500000                       # miss rate for ReadReq accesses
system.cpu.dcache.ReadReq_miss_rate::.switch_cpus.data     0.018276                       # miss rate for ReadReq accesses
system.cpu.dcache.ReadReq_miss_rate::total     0.018276                       # miss rate for ReadReq accesses
system.cpu.dcache.ReadReq_avg_miss_latency::.switch_cpus.data 64672.660154                       # average ReadReq miss latency
system.cpu.dcache.ReadReq_avg_miss_latency::total 64672.536743                       # average ReadReq miss latency
system.cpu.dcache.ReadReq_mshr_hits::.switch_cpus.data       208365                       # number of ReadReq MSHR hits
system.cpu.dcache.ReadReq_mshr_hits::total       208365                       # number of ReadReq MSHR hits
system.cpu.dcache.ReadReq_mshr_misses::.switch_cpus.data       315676                       # number of ReadReq MSHR misses
system.cpu.dcache.ReadReq_mshr_misses::total       315676                       # number of ReadReq MSHR misses
system.cpu.dcache.ReadReq_mshr_miss_latency::.switch_cpus.data  21574910500                       # number of ReadReq MSHR miss cycles
system.cpu.dcache.ReadReq_mshr_miss_latency::total  21574910500                       # number of ReadReq MSHR miss cycles
system.cpu.dcache.ReadReq_mshr_miss_rate::.switch_cpus.data     0.011009                       # mshr miss rate for ReadReq accesses
system.cpu.dcache.ReadReq_mshr_miss_rate::total     0.011009                       # mshr miss rate for ReadReq accesses
system.cpu.dcache.ReadReq_avg_mshr_miss_latency::.switch_cpus.data 68345.108592                       # average ReadReq mshr miss latency
system.cpu.dcache.ReadReq_avg_mshr_miss_latency::total 68345.108592                       # average ReadReq mshr miss latency
system.cpu.dcache.WriteReq_hits::.cpu.data            2                       # number of WriteReq hits
system.cpu.dcache.WriteReq_hits::.switch_cpus.data      8854883                       # number of WriteReq hits
system.cpu.dcache.WriteReq_hits::total        8854885                       # number of WriteReq hits
system.cpu.dcache.WriteReq_misses::.cpu.data            2                       # number of WriteReq misses
system.cpu.dcache.WriteReq_misses::.switch_cpus.data       127834                       # number of WriteReq misses
system.cpu.dcache.WriteReq_misses::total       127836                       # number of WriteReq misses
system.cpu.dcache.WriteReq_miss_latency::.switch_cpus.data   8534691805                       # number of WriteReq miss cycles
system.cpu.dcache.WriteReq_miss_latency::total   8534691805                       # number of WriteReq miss cycles
system.cpu.dcache.WriteReq_accesses::.cpu.data            4                       # number of WriteReq accesses(hits+misses)
system.cpu.dcache.WriteReq_accesses::.switch_cpus.data      8982717                       # number of WriteReq accesses(hits+misses)
system.cpu.dcache.WriteReq_accesses::total      8982721                       # number of WriteReq accesses(hits+misses)
system.cpu.dcache.WriteReq_miss_rate::.cpu.data     0.500000                       # miss rate for WriteReq accesses
system.cpu.dcache.WriteReq_miss_rate::.switch_cpus.data     0.014231                       # miss rate for WriteReq accesses
system.cpu.dcache.WriteReq_miss_rate::total     0.014231                       # miss rate for WriteReq accesses
system.cpu.dcache.WriteReq_avg_miss_latency::.switch_cpus.data 66763.864113                       # average WriteReq miss latency
system.cpu.dcache.WriteReq_avg_miss_latency::total 66762.819589                       # average WriteReq miss latency
system.cpu.dcache.WriteReq_mshr_hits::.switch_cpus.data           95                       # number of WriteReq MSHR hits
system.cpu.dcache.WriteReq_mshr_hits::total           95                       # number of WriteReq MSHR hits
system.cpu.dcache.WriteReq_mshr_misses::.switch_cpus.data       127739                       # number of WriteReq MSHR misses
system.cpu.dcache.WriteReq_mshr_misses::total       127739                       # number of WriteReq MSHR misses
system.cpu.dcache.WriteReq_mshr_miss_latency::.switch_cpus.data   8405571805                       # number of WriteReq MSHR miss cycles
system.cpu.dcache.WriteReq_mshr_miss_latency::total   8405571805                       # number of WriteReq MSHR miss cycles
system.cpu.dcache.WriteReq_mshr_miss_rate::.switch_cpus.data     0.014221                       # mshr miss rate for WriteReq accesses
system.cpu.dcache.WriteReq_mshr_miss_rate::total     0.014221                       # mshr miss rate for WriteReq accesses
system.cpu.dcache.WriteReq_avg_mshr_miss_latency::.switch_cpus.data 65802.705556                       # average WriteReq mshr miss latency
system.cpu.dcache.WriteReq_avg_mshr_miss_latency::total 65802.705556                       # average WriteReq mshr miss latency
system.cpu.dcache.SoftPFReq_hits::.switch_cpus.data        59127                       # number of SoftPFReq hits
system.cpu.dcache.SoftPFReq_hits::total         59127                       # number of SoftPFReq hits
system.cpu.dcache.SoftPFReq_misses::.switch_cpus.data        14465                       # number of SoftPFReq misses
system.cpu.dcache.SoftPFReq_misses::total        14465                       # number of SoftPFReq misses
system.cpu.dcache.SoftPFReq_accesses::.switch_cpus.data        73592                       # number of SoftPFReq accesses(hits+misses)
system.cpu.dcache.SoftPFReq_accesses::total        73592                       # number of SoftPFReq accesses(hits+misses)
system.cpu.dcache.SoftPFReq_miss_rate::.switch_cpus.data     0.196557                       # miss rate for SoftPFReq accesses
system.cpu.dcache.SoftPFReq_miss_rate::total     0.196557                       # miss rate for SoftPFReq accesses
system.cpu.dcache.SoftPFReq_mshr_misses::.switch_cpus.data         5439                       # number of SoftPFReq MSHR misses
system.cpu.dcache.SoftPFReq_mshr_misses::total         5439                       # number of SoftPFReq MSHR misses
system.cpu.dcache.SoftPFReq_mshr_miss_latency::.switch_cpus.data    495577000                       # number of SoftPFReq MSHR miss cycles
system.cpu.dcache.SoftPFReq_mshr_miss_latency::total    495577000                       # number of SoftPFReq MSHR miss cycles
system.cpu.dcache.SoftPFReq_mshr_miss_rate::.switch_cpus.data     0.073907                       # mshr miss rate for SoftPFReq accesses
system.cpu.dcache.SoftPFReq_mshr_miss_rate::total     0.073907                       # mshr miss rate for SoftPFReq accesses
system.cpu.dcache.SoftPFReq_avg_mshr_miss_latency::.switch_cpus.data 91115.462401                       # average SoftPFReq mshr miss latency
system.cpu.dcache.SoftPFReq_avg_mshr_miss_latency::total 91115.462401                       # average SoftPFReq mshr miss latency
system.cpu.dcache.tags.pwrStateResidencyTicks::UNDEFINED 560761042234500                       # Cumulative time (in ticks) in various power states
system.cpu.dcache.tags.tagsinuse             0.049230                       # Cycle average of tags in use
system.cpu.dcache.tags.total_refs            37512531                       # Total number of references to valid blocks.
system.cpu.dcache.tags.sampled_refs            448857                       # Sample count of references to valid blocks.
system.cpu.dcache.tags.avg_refs             83.573457                       # Average number of references to valid blocks.
system.cpu.dcache.tags.warmup_cycle      560734027452500                       # Cycle when the warmup percentage was hit.
system.cpu.dcache.tags.occ_blocks::.cpu.data     0.000001                       # Average occupied blocks per requestor
system.cpu.dcache.tags.occ_blocks::.switch_cpus.data     0.049229                       # Average occupied blocks per requestor
system.cpu.dcache.tags.occ_percent::.cpu.data     0.000000                       # Average percentage of cache occupancy
system.cpu.dcache.tags.occ_percent::.switch_cpus.data     0.000048                       # Average percentage of cache occupancy
system.cpu.dcache.tags.occ_percent::total     0.000048                       # Average percentage of cache occupancy
system.cpu.dcache.tags.occ_task_id_blocks::1024         1024                       # Occupied blocks per task id
system.cpu.dcache.tags.age_task_id_blocks_1024::0          132                       # Occupied blocks per task id
system.cpu.dcache.tags.age_task_id_blocks_1024::1          566                       # Occupied blocks per task id
system.cpu.dcache.tags.age_task_id_blocks_1024::2          325                       # Occupied blocks per task id
system.cpu.dcache.tags.age_task_id_blocks_1024::3            1                       # Occupied blocks per task id
system.cpu.dcache.tags.occ_task_id_percent::1024            1                       # Percentage of cache occupancy per task id
system.cpu.dcache.tags.tag_accesses          75908891                       # Number of tag accesses
system.cpu.dcache.tags.data_accesses         75908891                       # Number of data accesses

---------- End Simulation Statistics   ----------
