
---------- Begin Simulation Statistics ----------
final_tick                               448279201521500                       # Number of ticks from beginning of simulation (restored from checkpoints and never reset)
host_inst_rate                                  71739                       # Simulator instruction rate (inst/s)
host_mem_usage                                 830720                       # Number of bytes of host memory used
host_op_rate                                   146417                       # Simulator op (including micro ops) rate (op/s)
host_seconds                                   139.39                       # Real time elapsed on the host
host_tick_rate                               38355210                       # Simulator tick rate (ticks/s)
sim_freq                                 1000000000000                       # Frequency of simulated ticks
sim_insts                                    10000009                       # Number of instructions simulated
sim_ops                                      20409603                       # Number of ops (including micro ops) simulated
sim_seconds                                  0.005346                       # Number of seconds simulated
sim_ticks                                  5346481500                       # Number of ticks simulated
system.cpu.Branches                                 2                       # Number of branches fetched
system.cpu.committedInsts                           8                       # Number of instructions committed
system.cpu.committedOps                            16                       # Number of ops (including micro ops) committed
system.cpu.dtb.rdAccesses                           4                       # TLB accesses on read requests
system.cpu.dtb.rdMisses                             0                       # TLB misses on read requests
system.cpu.dtb.wrAccesses                           0                       # TLB accesses on write requests
system.cpu.dtb.wrMisses                             0                       # TLB misses on write requests
system.cpu.idle_fraction                            0                       # Percentage of idle cycles
system.cpu.itb.rdAccesses                           0                       # TLB accesses on read requests
system.cpu.itb.rdMisses                             0                       # TLB misses on read requests
system.cpu.itb.wrAccesses                          13                       # TLB accesses on write requests
system.cpu.itb.wrMisses                             0                       # TLB misses on write requests
system.cpu.not_idle_fraction                        1                       # Percentage of non-idle cycles
system.cpu.numCycles                               21                       # number of cpu cycles simulated
system.cpu.numWorkItemsCompleted                    0                       # number of work items this cpu completed
system.cpu.numWorkItemsStarted                      0                       # number of work items this cpu started
system.cpu.num_busy_cycles                         21                       # Number of busy cycles
system.cpu.num_cc_register_reads                   10                       # number of times the CC registers were read
system.cpu.num_cc_register_writes                   4                       # number of times the CC registers were written
system.cpu.num_conditional_control_insts            2                       # number of instructions that are conditional controls
system.cpu.num_fp_alu_accesses                      0                       # Number of float alu accesses
system.cpu.num_fp_insts                             0                       # number of float instructions
system.cpu.num_fp_register_reads                    0                       # number of times the floating registers were read
system.cpu.num_fp_register_writes                   0                       # number of times the floating registers were written
system.cpu.num_func_calls                           0                       # number of times a function call or return occured
system.cpu.num_idle_cycles                          0                       # Number of idle cycles
system.cpu.num_int_alu_accesses                    16                       # Number of integer alu accesses
system.cpu.num_int_insts                           16                       # number of integer instructions
system.cpu.num_int_register_reads                  38                       # number of times the integer registers were read
system.cpu.num_int_register_writes                 14                       # number of times the integer registers were written
system.cpu.num_load_insts                           4                       # Number of load instructions
system.cpu.num_mem_refs                             4                       # number of memory refs
system.cpu.num_store_insts                          0                       # Number of store instructions
system.cpu.num_vec_alu_accesses                     0                       # Number of vector alu accesses
system.cpu.num_vec_insts                            0                       # number of vector instructions
system.cpu.num_vec_register_reads                   0                       # number of times the vector registers were read
system.cpu.num_vec_register_writes                  0                       # number of times the vector registers were written
system.cpu.op_class::No_OpClass                     0      0.00%      0.00% # Class of executed instruction
system.cpu.op_class::IntAlu                        12     75.00%     75.00% # Class of executed instruction
system.cpu.op_class::IntMult                        0      0.00%     75.00% # Class of executed instruction
system.cpu.op_class::IntDiv                         0      0.00%     75.00% # Class of executed instruction
system.cpu.op_class::FloatAdd                       0      0.00%     75.00% # Class of executed instruction
system.cpu.op_class::FloatCmp                       0      0.00%     75.00% # Class of executed instruction
system.cpu.op_class::FloatCvt                       0      0.00%     75.00% # Class of executed instruction
system.cpu.op_class::FloatMult                      0      0.00%     75.00% # Class of executed instruction
system.cpu.op_class::FloatMultAcc                   0      0.00%     75.00% # Class of executed instruction
system.cpu.op_class::FloatDiv                       0      0.00%     75.00% # Class of executed instruction
system.cpu.op_class::FloatMisc                      0      0.00%     75.00% # Class of executed instruction
system.cpu.op_class::FloatSqrt                      0      0.00%     75.00% # Class of executed instruction
system.cpu.op_class::SimdAdd                        0      0.00%     75.00% # Class of executed instruction
system.cpu.op_class::SimdAddAcc                     0      0.00%     75.00% # Class of executed instruction
system.cpu.op_class::SimdAlu                        0      0.00%     75.00% # Class of executed instruction
system.cpu.op_class::SimdCmp                        0      0.00%     75.00% # Class of executed instruction
system.cpu.op_class::SimdCvt                        0      0.00%     75.00% # Class of executed instruction
system.cpu.op_class::SimdMisc                       0      0.00%     75.00% # Class of executed instruction
system.cpu.op_class::SimdMult                       0      0.00%     75.00% # Class of executed instruction
system.cpu.op_class::SimdMultAcc                    0      0.00%     75.00% # Class of executed instruction
system.cpu.op_class::SimdShift                      0      0.00%     75.00% # Class of executed instruction
system.cpu.op_class::SimdShiftAcc                   0      0.00%     75.00% # Class of executed instruction
system.cpu.op_class::SimdDiv                        0      0.00%     75.00% # Class of executed instruction
system.cpu.op_class::SimdSqrt                       0      0.00%     75.00% # Class of executed instruction
system.cpu.op_class::SimdFloatAdd                   0      0.00%     75.00% # Class of executed instruction
system.cpu.op_class::SimdFloatAlu                   0      0.00%     75.00% # Class of executed instruction
system.cpu.op_class::SimdFloatCmp                   0      0.00%     75.00% # Class of executed instruction
system.cpu.op_class::SimdFloatCvt                   0      0.00%     75.00% # Class of executed instruction
system.cpu.op_class::SimdFloatDiv                   0      0.00%     75.00% # Class of executed instruction
system.cpu.op_class::SimdFloatMisc                  0      0.00%     75.00% # Class of executed instruction
system.cpu.op_class::SimdFloatMult                  0      0.00%     75.00% # Class of executed instruction
system.cpu.op_class::SimdFloatMultAcc               0      0.00%     75.00% # Class of executed instruction
system.cpu.op_class::SimdFloatSqrt                  0      0.00%     75.00% # Class of executed instruction
system.cpu.op_class::SimdReduceAdd                  0      0.00%     75.00% # Class of executed instruction
system.cpu.op_class::SimdReduceAlu                  0      0.00%     75.00% # Class of executed instruction
system.cpu.op_class::SimdReduceCmp                  0      0.00%     75.00% # Class of executed instruction
system.cpu.op_class::SimdFloatReduceAdd             0      0.00%     75.00% # Class of executed instruction
system.cpu.op_class::SimdFloatReduceCmp             0      0.00%     75.00% # Class of executed instruction
system.cpu.op_class::SimdAes                        0      0.00%     75.00% # Class of executed instruction
system.cpu.op_class::SimdAesMix                     0      0.00%     75.00% # Class of executed instruction
system.cpu.op_class::SimdSha1Hash                   0      0.00%     75.00% # Class of executed instruction
system.cpu.op_class::SimdSha1Hash2                  0      0.00%     75.00% # Class of executed instruction
system.cpu.op_class::SimdSha256Hash                 0      0.00%     75.00% # Class of executed instruction
system.cpu.op_class::SimdSha256Hash2                0      0.00%     75.00% # Class of executed instruction
system.cpu.op_class::SimdShaSigma2                  0      0.00%     75.00% # Class of executed instruction
system.cpu.op_class::SimdShaSigma3                  0      0.00%     75.00% # Class of executed instruction
system.cpu.op_class::SimdPredAlu                    0      0.00%     75.00% # Class of executed instruction
system.cpu.op_class::MemRead                        4     25.00%    100.00% # Class of executed instruction
system.cpu.op_class::MemWrite                       0      0.00%    100.00% # Class of executed instruction
system.cpu.op_class::FloatMemRead                   0      0.00%    100.00% # Class of executed instruction
system.cpu.op_class::FloatMemWrite                  0      0.00%    100.00% # Class of executed instruction
system.cpu.op_class::IprAccess                      0      0.00%    100.00% # Class of executed instruction
system.cpu.op_class::InstPrefetch                   0      0.00%    100.00% # Class of executed instruction
system.cpu.op_class::total                         16                       # Class of executed instruction
system.cpu.workload.numSyscalls                     0                       # Number of system calls
system.membus.snoop_filter.hit_multi_requests            0                       # Number of requests hitting in the snoop filter with multiple (>1) holders of the requested data.
system.membus.snoop_filter.hit_multi_snoops            0                       # Number of snoops hitting in the snoop filter with multiple (>1) holders of the requested data.
system.membus.snoop_filter.hit_single_requests        47493                       # Number of requests hitting in the snoop filter with a single holder of the requested data.
system.membus.snoop_filter.hit_single_snoops            0                       # Number of snoops hitting in the snoop filter with a single holder of the requested data.
system.membus.snoop_filter.tot_requests        103225                       # Total number of requests made to the snoop filter.
system.membus.snoop_filter.tot_snoops               0                       # Total number of snoops made to the snoop filter.
system.switch_cpus.branchPred.BTBCorrect            0                       # Number of correct BTB predictions (this stat may not work properly.
system.switch_cpus.branchPred.BTBHitPct      0.000000                       # BTB Hit Percentage
system.switch_cpus.branchPred.BTBHits               0                       # Number of BTB hits
system.switch_cpus.branchPred.BTBLookups      2032948                       # Number of BTB lookups
system.switch_cpus.branchPred.RASInCorrect            1                       # Number of incorrect RAS predictions.
system.switch_cpus.branchPred.condIncorrect          272                       # Number of conditional branches incorrect
system.switch_cpus.branchPred.condPredicted      2603998                       # Number of conditional branches predicted
system.switch_cpus.branchPred.indirectHits       411090                       # Number of indirect target hits.
system.switch_cpus.branchPred.indirectLookups      2032948                       # Number of indirect predictor lookups.
system.switch_cpus.branchPred.indirectMisses      1621858                       # Number of indirect misses.
system.switch_cpus.branchPred.lookups         2604212                       # Number of BP lookups
system.switch_cpus.branchPred.usedRAS              95                       # Number of times the RAS was used to get a target.
system.switch_cpus.branchPredindirectMispredicted          165                       # Number of mispredicted indirect branches.
system.switch_cpus.cc_regfile_reads          13013802                       # number of cc regfile reads
system.switch_cpus.cc_regfile_writes          6028311                       # number of cc regfile writes
system.switch_cpus.commit.amos                      0                       # Number of atomic instructions committed
system.switch_cpus.commit.branchMispredicts          294                       # The number of times a branch was mispredicted
system.switch_cpus.commit.branches            2602424                       # Number of branches committed
system.switch_cpus.commit.bw_lim_events       2353795                       # number cycles where commit BW limit reached
system.switch_cpus.commit.commitSquashedInsts        10768                       # The number of squashed insts skipped by commit
system.switch_cpus.commit.committedInsts     10000001                       # Number of instructions committed
system.switch_cpus.commit.committedOps       20409587                       # Number of ops (including micro ops) committed
system.switch_cpus.commit.committed_per_cycle::samples     10687352                       # Number of insts commited each cycle
system.switch_cpus.commit.committed_per_cycle::mean     1.909695                       # Number of insts commited each cycle
system.switch_cpus.commit.committed_per_cycle::stdev     3.327485                       # Number of insts commited each cycle
system.switch_cpus.commit.committed_per_cycle::underflows            0      0.00%      0.00% # Number of insts commited each cycle
system.switch_cpus.commit.committed_per_cycle::0      7762887     72.64%     72.64% # Number of insts commited each cycle
system.switch_cpus.commit.committed_per_cycle::1       255523      2.39%     75.03% # Number of insts commited each cycle
system.switch_cpus.commit.committed_per_cycle::2        11666      0.11%     75.14% # Number of insts commited each cycle
system.switch_cpus.commit.committed_per_cycle::3       174392      1.63%     76.77% # Number of insts commited each cycle
system.switch_cpus.commit.committed_per_cycle::4         4738      0.04%     76.81% # Number of insts commited each cycle
system.switch_cpus.commit.committed_per_cycle::5        41635      0.39%     77.20% # Number of insts commited each cycle
system.switch_cpus.commit.committed_per_cycle::6        28943      0.27%     77.47% # Number of insts commited each cycle
system.switch_cpus.commit.committed_per_cycle::7        53773      0.50%     77.98% # Number of insts commited each cycle
system.switch_cpus.commit.committed_per_cycle::8      2353795     22.02%    100.00% # Number of insts commited each cycle
system.switch_cpus.commit.committed_per_cycle::overflows            0      0.00%    100.00% # Number of insts commited each cycle
system.switch_cpus.commit.committed_per_cycle::min_value            0                       # Number of insts commited each cycle
system.switch_cpus.commit.committed_per_cycle::max_value            8                       # Number of insts commited each cycle
system.switch_cpus.commit.committed_per_cycle::total     10687352                       # Number of insts commited each cycle
system.switch_cpus.commit.fp_insts                  0                       # Number of committed floating point instructions.
system.switch_cpus.commit.function_calls           13                       # Number of function calls committed.
system.switch_cpus.commit.int_insts          20409570                       # Number of committed integer instructions.
system.switch_cpus.commit.loads               4520300                       # Number of loads committed
system.switch_cpus.commit.membars                   0                       # Number of memory barriers committed
system.switch_cpus.commit.op_class_0::No_OpClass           17      0.00%      0.00% # Class of committed instruction
system.switch_cpus.commit.op_class_0::IntAlu     15752017     77.18%     77.18% # Class of committed instruction
system.switch_cpus.commit.op_class_0::IntMult            0      0.00%     77.18% # Class of committed instruction
system.switch_cpus.commit.op_class_0::IntDiv            0      0.00%     77.18% # Class of committed instruction
system.switch_cpus.commit.op_class_0::FloatAdd            0      0.00%     77.18% # Class of committed instruction
system.switch_cpus.commit.op_class_0::FloatCmp            0      0.00%     77.18% # Class of committed instruction
system.switch_cpus.commit.op_class_0::FloatCvt            0      0.00%     77.18% # Class of committed instruction
system.switch_cpus.commit.op_class_0::FloatMult            0      0.00%     77.18% # Class of committed instruction
system.switch_cpus.commit.op_class_0::FloatMultAcc            0      0.00%     77.18% # Class of committed instruction
system.switch_cpus.commit.op_class_0::FloatDiv            0      0.00%     77.18% # Class of committed instruction
system.switch_cpus.commit.op_class_0::FloatMisc            0      0.00%     77.18% # Class of committed instruction
system.switch_cpus.commit.op_class_0::FloatSqrt            0      0.00%     77.18% # Class of committed instruction
system.switch_cpus.commit.op_class_0::SimdAdd            0      0.00%     77.18% # Class of committed instruction
system.switch_cpus.commit.op_class_0::SimdAddAcc            0      0.00%     77.18% # Class of committed instruction
system.switch_cpus.commit.op_class_0::SimdAlu            0      0.00%     77.18% # Class of committed instruction
system.switch_cpus.commit.op_class_0::SimdCmp            0      0.00%     77.18% # Class of committed instruction
system.switch_cpus.commit.op_class_0::SimdCvt            0      0.00%     77.18% # Class of committed instruction
system.switch_cpus.commit.op_class_0::SimdMisc            0      0.00%     77.18% # Class of committed instruction
system.switch_cpus.commit.op_class_0::SimdMult            0      0.00%     77.18% # Class of committed instruction
system.switch_cpus.commit.op_class_0::SimdMultAcc            0      0.00%     77.18% # Class of committed instruction
system.switch_cpus.commit.op_class_0::SimdShift            0      0.00%     77.18% # Class of committed instruction
system.switch_cpus.commit.op_class_0::SimdShiftAcc            0      0.00%     77.18% # Class of committed instruction
system.switch_cpus.commit.op_class_0::SimdDiv            0      0.00%     77.18% # Class of committed instruction
system.switch_cpus.commit.op_class_0::SimdSqrt            0      0.00%     77.18% # Class of committed instruction
system.switch_cpus.commit.op_class_0::SimdFloatAdd            0      0.00%     77.18% # Class of committed instruction
system.switch_cpus.commit.op_class_0::SimdFloatAlu            0      0.00%     77.18% # Class of committed instruction
system.switch_cpus.commit.op_class_0::SimdFloatCmp            0      0.00%     77.18% # Class of committed instruction
system.switch_cpus.commit.op_class_0::SimdFloatCvt            0      0.00%     77.18% # Class of committed instruction
system.switch_cpus.commit.op_class_0::SimdFloatDiv            0      0.00%     77.18% # Class of committed instruction
system.switch_cpus.commit.op_class_0::SimdFloatMisc            0      0.00%     77.18% # Class of committed instruction
system.switch_cpus.commit.op_class_0::SimdFloatMult            0      0.00%     77.18% # Class of committed instruction
system.switch_cpus.commit.op_class_0::SimdFloatMultAcc            0      0.00%     77.18% # Class of committed instruction
system.switch_cpus.commit.op_class_0::SimdFloatSqrt            0      0.00%     77.18% # Class of committed instruction
system.switch_cpus.commit.op_class_0::SimdReduceAdd            0      0.00%     77.18% # Class of committed instruction
system.switch_cpus.commit.op_class_0::SimdReduceAlu            0      0.00%     77.18% # Class of committed instruction
system.switch_cpus.commit.op_class_0::SimdReduceCmp            0      0.00%     77.18% # Class of committed instruction
system.switch_cpus.commit.op_class_0::SimdFloatReduceAdd            0      0.00%     77.18% # Class of committed instruction
system.switch_cpus.commit.op_class_0::SimdFloatReduceCmp            0      0.00%     77.18% # Class of committed instruction
system.switch_cpus.commit.op_class_0::SimdAes            0      0.00%     77.18% # Class of committed instruction
system.switch_cpus.commit.op_class_0::SimdAesMix            0      0.00%     77.18% # Class of committed instruction
system.switch_cpus.commit.op_class_0::SimdSha1Hash            0      0.00%     77.18% # Class of committed instruction
system.switch_cpus.commit.op_class_0::SimdSha1Hash2            0      0.00%     77.18% # Class of committed instruction
system.switch_cpus.commit.op_class_0::SimdSha256Hash            0      0.00%     77.18% # Class of committed instruction
system.switch_cpus.commit.op_class_0::SimdSha256Hash2            0      0.00%     77.18% # Class of committed instruction
system.switch_cpus.commit.op_class_0::SimdShaSigma2            0      0.00%     77.18% # Class of committed instruction
system.switch_cpus.commit.op_class_0::SimdShaSigma3            0      0.00%     77.18% # Class of committed instruction
system.switch_cpus.commit.op_class_0::SimdPredAlu            0      0.00%     77.18% # Class of committed instruction
system.switch_cpus.commit.op_class_0::MemRead      4520300     22.15%     99.33% # Class of committed instruction
system.switch_cpus.commit.op_class_0::MemWrite       137253      0.67%    100.00% # Class of committed instruction
system.switch_cpus.commit.op_class_0::FloatMemRead            0      0.00%    100.00% # Class of committed instruction
system.switch_cpus.commit.op_class_0::FloatMemWrite            0      0.00%    100.00% # Class of committed instruction
system.switch_cpus.commit.op_class_0::IprAccess            0      0.00%    100.00% # Class of committed instruction
system.switch_cpus.commit.op_class_0::InstPrefetch            0      0.00%    100.00% # Class of committed instruction
system.switch_cpus.commit.op_class_0::total     20409587                       # Class of committed instruction
system.switch_cpus.commit.refs                4657553                       # Number of memory references committed
system.switch_cpus.commit.swp_count                 0                       # Number of s/w prefetches committed
system.switch_cpus.commit.vec_insts                 0                       # Number of committed Vector instructions.
system.switch_cpus.committedInsts            10000001                       # Number of Instructions Simulated
system.switch_cpus.committedOps              20409587                       # Number of Ops (including micro ops) Simulated
system.switch_cpus.cpi                       1.069294                       # CPI: Cycles Per Instruction
system.switch_cpus.cpi_total                 1.069294                       # CPI: Total CPI of All Threads
system.switch_cpus.decode.BlockedCycles       7117707                       # Number of cycles decode is blocked
system.switch_cpus.decode.DecodedInsts       20423898                       # Number of instructions handled by decode
system.switch_cpus.decode.IdleCycles           638558                       # Number of cycles decode is idle
system.switch_cpus.decode.RunCycles           2795106                       # Number of cycles decode is running
system.switch_cpus.decode.SquashCycles            331                       # Number of cycles decode is squashing
system.switch_cpus.decode.UnblockCycles        137398                       # Number of cycles decode is unblocking
system.switch_cpus.dtb.rdAccesses             4522322                       # TLB accesses on read requests
system.switch_cpus.dtb.rdMisses                  1669                       # TLB misses on read requests
system.switch_cpus.dtb.wrAccesses              137578                       # TLB accesses on write requests
system.switch_cpus.dtb.wrMisses                     9                       # TLB misses on write requests
system.switch_cpus.fetch.Branches             2604212                       # Number of branches that fetch encountered
system.switch_cpus.fetch.CacheLines            823151                       # Number of cache lines fetched
system.switch_cpus.fetch.Cycles               9863886                       # Number of cycles fetch has run and was not squashing or blocked
system.switch_cpus.fetch.IcacheSquashes            73                       # Number of outstanding Icache misses that were squashed
system.switch_cpus.fetch.Insts               10010727                       # Number of instructions fetch has processed
system.switch_cpus.fetch.MiscStallCycles           22                       # Number of cycles fetch has spent waiting on interrupts, or bad addresses, or out of MSHRs
system.switch_cpus.fetch.PendingTrapStallCycles          276                       # Number of stall cycles due to pending traps
system.switch_cpus.fetch.SquashCycles             662                       # Number of cycles fetch has spent squashing
system.switch_cpus.fetch.branchRate          0.243545                       # Number of branch fetches per cycle
system.switch_cpus.fetch.icacheStallCycles       824597                       # Number of cycles fetch is stalled on an Icache miss
system.switch_cpus.fetch.predictedBranches       411185                       # Number of branches that fetch has predicted taken
system.switch_cpus.fetch.rate                0.936200                       # Number of inst fetches per cycle
system.switch_cpus.fetch.rateDist::samples     10689112                       # Number of instructions fetched each cycle (Total)
system.switch_cpus.fetch.rateDist::mean      1.911027                       # Number of instructions fetched each cycle (Total)
system.switch_cpus.fetch.rateDist::stdev     3.249893                       # Number of instructions fetched each cycle (Total)
system.switch_cpus.fetch.rateDist::underflows            0      0.00%      0.00% # Number of instructions fetched each cycle (Total)
system.switch_cpus.fetch.rateDist::0          7534466     70.49%     70.49% # Number of instructions fetched each cycle (Total)
system.switch_cpus.fetch.rateDist::1           370704      3.47%     73.96% # Number of instructions fetched each cycle (Total)
system.switch_cpus.fetch.rateDist::2              143      0.00%     73.96% # Number of instructions fetched each cycle (Total)
system.switch_cpus.fetch.rateDist::3           131369      1.23%     75.19% # Number of instructions fetched each cycle (Total)
system.switch_cpus.fetch.rateDist::4           300369      2.81%     78.00% # Number of instructions fetched each cycle (Total)
system.switch_cpus.fetch.rateDist::5            63265      0.59%     78.59% # Number of instructions fetched each cycle (Total)
system.switch_cpus.fetch.rateDist::6              221      0.00%     78.59% # Number of instructions fetched each cycle (Total)
system.switch_cpus.fetch.rateDist::7           165647      1.55%     80.14% # Number of instructions fetched each cycle (Total)
system.switch_cpus.fetch.rateDist::8          2122928     19.86%    100.00% # Number of instructions fetched each cycle (Total)
system.switch_cpus.fetch.rateDist::overflows            0      0.00%    100.00% # Number of instructions fetched each cycle (Total)
system.switch_cpus.fetch.rateDist::min_value            0                       # Number of instructions fetched each cycle (Total)
system.switch_cpus.fetch.rateDist::max_value            8                       # Number of instructions fetched each cycle (Total)
system.switch_cpus.fetch.rateDist::total     10689112                       # Number of instructions fetched each cycle (Total)
system.switch_cpus.fp_regfile_writes               56                       # number of floating regfile writes
system.switch_cpus.idleCycles                    3830                       # Total number of cycles that the CPU has spent unscheduled due to idling
system.switch_cpus.iew.branchMispredicts          377                       # Number of branch mispredicts detected at execute
system.switch_cpus.iew.exec_branches          2602750                       # Number of branches executed
system.switch_cpus.iew.exec_nop                     0                       # number of nop insts executed
system.switch_cpus.iew.exec_rate             1.909360                       # Inst execution rate
system.switch_cpus.iew.exec_refs              4659955                       # number of memory reference insts executed
system.switch_cpus.iew.exec_stores             137578                       # Number of stores executed
system.switch_cpus.iew.exec_swp                     0                       # number of swp insts executed
system.switch_cpus.iew.iewBlockCycles            2401                       # Number of cycles IEW is blocking
system.switch_cpus.iew.iewDispLoadInsts       4522985                       # Number of dispatched load instructions
system.switch_cpus.iew.iewDispNonSpecInsts            0                       # Number of dispatched non-speculative instructions
system.switch_cpus.iew.iewDispSquashedInsts            0                       # Number of squashed instructions skipped by dispatch
system.switch_cpus.iew.iewDispStoreInsts       137900                       # Number of dispatched store instructions
system.switch_cpus.iew.iewDispatchedInsts     20420430                       # Number of instructions dispatched to IQ
system.switch_cpus.iew.iewExecLoadInsts       4522377                       # Number of load instructions executed
system.switch_cpus.iew.iewExecSquashedInsts          587                       # Number of squashed instructions skipped in execute
system.switch_cpus.iew.iewExecutedInsts      20416675                       # Number of executed instructions
system.switch_cpus.iew.iewIQFullEvents             30                       # Number of times the IQ has become full, causing a stall
system.switch_cpus.iew.iewIdleCycles                0                       # Number of cycles IEW is idle
system.switch_cpus.iew.iewLSQFullEvents        143275                       # Number of times the LSQ has become full, causing a stall
system.switch_cpus.iew.iewSquashCycles            331                       # Number of cycles IEW is squashing
system.switch_cpus.iew.iewUnblockCycles        143308                       # Number of cycles IEW is unblocking
system.switch_cpus.iew.lsq.thread0.blockedLoads            0                       # Number of blocked loads due to partial load-store forwarding
system.switch_cpus.iew.lsq.thread0.cacheBlocked            8                       # Number of times an access to memory failed due to the cache being blocked
system.switch_cpus.iew.lsq.thread0.forwLoads          184                       # Number of loads that had data forwarded from stores
system.switch_cpus.iew.lsq.thread0.ignoredResponses            5                       # Number of memory responses ignored because the instruction is squashed
system.switch_cpus.iew.lsq.thread0.invAddrLoads            0                       # Number of loads ignored due to an invalid address
system.switch_cpus.iew.lsq.thread0.invAddrSwpfs            0                       # Number of software prefetches ignored due to an invalid address
system.switch_cpus.iew.lsq.thread0.memOrderViolation           44                       # Number of memory ordering violations
system.switch_cpus.iew.lsq.thread0.rescheduledLoads            5                       # Number of loads that were rescheduled
system.switch_cpus.iew.lsq.thread0.squashedLoads         2667                       # Number of loads squashed
system.switch_cpus.iew.lsq.thread0.squashedStores          646                       # Number of stores squashed
system.switch_cpus.iew.memOrderViolationEvents           44                       # Number of memory order violations
system.switch_cpus.iew.predictedNotTakenIncorrect          337                       # Number of branches that were predicted not taken incorrectly
system.switch_cpus.iew.predictedTakenIncorrect           40                       # Number of branches that were predicted taken incorrectly
system.switch_cpus.iew.wb_consumers          24781056                       # num instructions consuming a value
system.switch_cpus.iew.wb_count              20415943                       # cumulative count of insts written-back
system.switch_cpus.iew.wb_fanout             0.697096                       # average fanout of values written-back
system.switch_cpus.iew.wb_producers          17274776                       # num instructions producing a value
system.switch_cpus.iew.wb_rate               1.909291                       # insts written-back per cycle
system.switch_cpus.iew.wb_sent               20416172                       # cumulative count of insts sent to commit
system.switch_cpus.int_regfile_reads         36036456                       # number of integer regfile reads
system.switch_cpus.int_regfile_writes        17675709                       # number of integer regfile writes
system.switch_cpus.ipc                       0.935196                       # IPC: Instructions Per Cycle
system.switch_cpus.ipc_total                 0.935196                       # IPC: Total IPC of All Threads
system.switch_cpus.iq.FU_type_0::No_OpClass          188      0.00%      0.00% # Type of FU issued
system.switch_cpus.iq.FU_type_0::IntAlu      15756895     77.17%     77.18% # Type of FU issued
system.switch_cpus.iq.FU_type_0::IntMult            0      0.00%     77.18% # Type of FU issued
system.switch_cpus.iq.FU_type_0::IntDiv             0      0.00%     77.18% # Type of FU issued
system.switch_cpus.iq.FU_type_0::FloatAdd            0      0.00%     77.18% # Type of FU issued
system.switch_cpus.iq.FU_type_0::FloatCmp            0      0.00%     77.18% # Type of FU issued
system.switch_cpus.iq.FU_type_0::FloatCvt            0      0.00%     77.18% # Type of FU issued
system.switch_cpus.iq.FU_type_0::FloatMult            0      0.00%     77.18% # Type of FU issued
system.switch_cpus.iq.FU_type_0::FloatMultAcc            0      0.00%     77.18% # Type of FU issued
system.switch_cpus.iq.FU_type_0::FloatDiv            0      0.00%     77.18% # Type of FU issued
system.switch_cpus.iq.FU_type_0::FloatMisc            0      0.00%     77.18% # Type of FU issued
system.switch_cpus.iq.FU_type_0::FloatSqrt            0      0.00%     77.18% # Type of FU issued
system.switch_cpus.iq.FU_type_0::SimdAdd            0      0.00%     77.18% # Type of FU issued
system.switch_cpus.iq.FU_type_0::SimdAddAcc            0      0.00%     77.18% # Type of FU issued
system.switch_cpus.iq.FU_type_0::SimdAlu            0      0.00%     77.18% # Type of FU issued
system.switch_cpus.iq.FU_type_0::SimdCmp            0      0.00%     77.18% # Type of FU issued
system.switch_cpus.iq.FU_type_0::SimdCvt            0      0.00%     77.18% # Type of FU issued
system.switch_cpus.iq.FU_type_0::SimdMisc            0      0.00%     77.18% # Type of FU issued
system.switch_cpus.iq.FU_type_0::SimdMult            0      0.00%     77.18% # Type of FU issued
system.switch_cpus.iq.FU_type_0::SimdMultAcc            0      0.00%     77.18% # Type of FU issued
system.switch_cpus.iq.FU_type_0::SimdShift            0      0.00%     77.18% # Type of FU issued
system.switch_cpus.iq.FU_type_0::SimdShiftAcc            0      0.00%     77.18% # Type of FU issued
system.switch_cpus.iq.FU_type_0::SimdDiv            0      0.00%     77.18% # Type of FU issued
system.switch_cpus.iq.FU_type_0::SimdSqrt            0      0.00%     77.18% # Type of FU issued
system.switch_cpus.iq.FU_type_0::SimdFloatAdd            0      0.00%     77.18% # Type of FU issued
system.switch_cpus.iq.FU_type_0::SimdFloatAlu            0      0.00%     77.18% # Type of FU issued
system.switch_cpus.iq.FU_type_0::SimdFloatCmp            0      0.00%     77.18% # Type of FU issued
system.switch_cpus.iq.FU_type_0::SimdFloatCvt            0      0.00%     77.18% # Type of FU issued
system.switch_cpus.iq.FU_type_0::SimdFloatDiv            0      0.00%     77.18% # Type of FU issued
system.switch_cpus.iq.FU_type_0::SimdFloatMisc            0      0.00%     77.18% # Type of FU issued
system.switch_cpus.iq.FU_type_0::SimdFloatMult            0      0.00%     77.18% # Type of FU issued
system.switch_cpus.iq.FU_type_0::SimdFloatMultAcc            0      0.00%     77.18% # Type of FU issued
system.switch_cpus.iq.FU_type_0::SimdFloatSqrt            0      0.00%     77.18% # Type of FU issued
system.switch_cpus.iq.FU_type_0::SimdReduceAdd            0      0.00%     77.18% # Type of FU issued
system.switch_cpus.iq.FU_type_0::SimdReduceAlu            0      0.00%     77.18% # Type of FU issued
system.switch_cpus.iq.FU_type_0::SimdReduceCmp            0      0.00%     77.18% # Type of FU issued
system.switch_cpus.iq.FU_type_0::SimdFloatReduceAdd            0      0.00%     77.18% # Type of FU issued
system.switch_cpus.iq.FU_type_0::SimdFloatReduceCmp            0      0.00%     77.18% # Type of FU issued
system.switch_cpus.iq.FU_type_0::SimdAes            0      0.00%     77.18% # Type of FU issued
system.switch_cpus.iq.FU_type_0::SimdAesMix            0      0.00%     77.18% # Type of FU issued
system.switch_cpus.iq.FU_type_0::SimdSha1Hash            0      0.00%     77.18% # Type of FU issued
system.switch_cpus.iq.FU_type_0::SimdSha1Hash2            0      0.00%     77.18% # Type of FU issued
system.switch_cpus.iq.FU_type_0::SimdSha256Hash            0      0.00%     77.18% # Type of FU issued
system.switch_cpus.iq.FU_type_0::SimdSha256Hash2            0      0.00%     77.18% # Type of FU issued
system.switch_cpus.iq.FU_type_0::SimdShaSigma2            0      0.00%     77.18% # Type of FU issued
system.switch_cpus.iq.FU_type_0::SimdShaSigma3            0      0.00%     77.18% # Type of FU issued
system.switch_cpus.iq.FU_type_0::SimdPredAlu            0      0.00%     77.18% # Type of FU issued
system.switch_cpus.iq.FU_type_0::MemRead      4522559     22.15%     99.33% # Type of FU issued
system.switch_cpus.iq.FU_type_0::MemWrite       137625      0.67%    100.00% # Type of FU issued
system.switch_cpus.iq.FU_type_0::FloatMemRead            0      0.00%    100.00% # Type of FU issued
system.switch_cpus.iq.FU_type_0::FloatMemWrite            0      0.00%    100.00% # Type of FU issued
system.switch_cpus.iq.FU_type_0::IprAccess            0      0.00%    100.00% # Type of FU issued
system.switch_cpus.iq.FU_type_0::InstPrefetch            0      0.00%    100.00% # Type of FU issued
system.switch_cpus.iq.FU_type_0::total       20417267                       # Type of FU issued
system.switch_cpus.iq.fp_alu_accesses               0                       # Number of floating point alu accesses
system.switch_cpus.iq.fp_inst_queue_reads            0                       # Number of floating instruction queue reads
system.switch_cpus.iq.fp_inst_queue_wakeup_accesses            0                       # Number of floating instruction queue wakeup accesses
system.switch_cpus.iq.fp_inst_queue_writes            0                       # Number of floating instruction queue writes
system.switch_cpus.iq.fu_busy_cnt              411364                       # FU busy when requested
system.switch_cpus.iq.fu_busy_rate           0.020148                       # FU busy rate (busy events/executed inst)
system.switch_cpus.iq.fu_full::No_OpClass            0      0.00%      0.00% # attempts to use FU when none available
system.switch_cpus.iq.fu_full::IntAlu          411278     99.98%     99.98% # attempts to use FU when none available
system.switch_cpus.iq.fu_full::IntMult              0      0.00%     99.98% # attempts to use FU when none available
system.switch_cpus.iq.fu_full::IntDiv               0      0.00%     99.98% # attempts to use FU when none available
system.switch_cpus.iq.fu_full::FloatAdd             0      0.00%     99.98% # attempts to use FU when none available
system.switch_cpus.iq.fu_full::FloatCmp             0      0.00%     99.98% # attempts to use FU when none available
system.switch_cpus.iq.fu_full::FloatCvt             0      0.00%     99.98% # attempts to use FU when none available
system.switch_cpus.iq.fu_full::FloatMult            0      0.00%     99.98% # attempts to use FU when none available
system.switch_cpus.iq.fu_full::FloatMultAcc            0      0.00%     99.98% # attempts to use FU when none available
system.switch_cpus.iq.fu_full::FloatDiv             0      0.00%     99.98% # attempts to use FU when none available
system.switch_cpus.iq.fu_full::FloatMisc            0      0.00%     99.98% # attempts to use FU when none available
system.switch_cpus.iq.fu_full::FloatSqrt            0      0.00%     99.98% # attempts to use FU when none available
system.switch_cpus.iq.fu_full::SimdAdd              0      0.00%     99.98% # attempts to use FU when none available
system.switch_cpus.iq.fu_full::SimdAddAcc            0      0.00%     99.98% # attempts to use FU when none available
system.switch_cpus.iq.fu_full::SimdAlu              0      0.00%     99.98% # attempts to use FU when none available
system.switch_cpus.iq.fu_full::SimdCmp              0      0.00%     99.98% # attempts to use FU when none available
system.switch_cpus.iq.fu_full::SimdCvt              0      0.00%     99.98% # attempts to use FU when none available
system.switch_cpus.iq.fu_full::SimdMisc             0      0.00%     99.98% # attempts to use FU when none available
system.switch_cpus.iq.fu_full::SimdMult             0      0.00%     99.98% # attempts to use FU when none available
system.switch_cpus.iq.fu_full::SimdMultAcc            0      0.00%     99.98% # attempts to use FU when none available
system.switch_cpus.iq.fu_full::SimdShift            0      0.00%     99.98% # attempts to use FU when none available
system.switch_cpus.iq.fu_full::SimdShiftAcc            0      0.00%     99.98% # attempts to use FU when none available
system.switch_cpus.iq.fu_full::SimdDiv              0      0.00%     99.98% # attempts to use FU when none available
system.switch_cpus.iq.fu_full::SimdSqrt             0      0.00%     99.98% # attempts to use FU when none available
system.switch_cpus.iq.fu_full::SimdFloatAdd            0      0.00%     99.98% # attempts to use FU when none available
system.switch_cpus.iq.fu_full::SimdFloatAlu            0      0.00%     99.98% # attempts to use FU when none available
system.switch_cpus.iq.fu_full::SimdFloatCmp            0      0.00%     99.98% # attempts to use FU when none available
system.switch_cpus.iq.fu_full::SimdFloatCvt            0      0.00%     99.98% # attempts to use FU when none available
system.switch_cpus.iq.fu_full::SimdFloatDiv            0      0.00%     99.98% # attempts to use FU when none available
system.switch_cpus.iq.fu_full::SimdFloatMisc            0      0.00%     99.98% # attempts to use FU when none available
system.switch_cpus.iq.fu_full::SimdFloatMult            0      0.00%     99.98% # attempts to use FU when none available
system.switch_cpus.iq.fu_full::SimdFloatMultAcc            0      0.00%     99.98% # attempts to use FU when none available
system.switch_cpus.iq.fu_full::SimdFloatSqrt            0      0.00%     99.98% # attempts to use FU when none available
system.switch_cpus.iq.fu_full::SimdReduceAdd            0      0.00%     99.98% # attempts to use FU when none available
system.switch_cpus.iq.fu_full::SimdReduceAlu            0      0.00%     99.98% # attempts to use FU when none available
system.switch_cpus.iq.fu_full::SimdReduceCmp            0      0.00%     99.98% # attempts to use FU when none available
system.switch_cpus.iq.fu_full::SimdFloatReduceAdd            0      0.00%     99.98% # attempts to use FU when none available
system.switch_cpus.iq.fu_full::SimdFloatReduceCmp            0      0.00%     99.98% # attempts to use FU when none available
system.switch_cpus.iq.fu_full::SimdAes              0      0.00%     99.98% # attempts to use FU when none available
system.switch_cpus.iq.fu_full::SimdAesMix            0      0.00%     99.98% # attempts to use FU when none available
system.switch_cpus.iq.fu_full::SimdSha1Hash            0      0.00%     99.98% # attempts to use FU when none available
system.switch_cpus.iq.fu_full::SimdSha1Hash2            0      0.00%     99.98% # attempts to use FU when none available
system.switch_cpus.iq.fu_full::SimdSha256Hash            0      0.00%     99.98% # attempts to use FU when none available
system.switch_cpus.iq.fu_full::SimdSha256Hash2            0      0.00%     99.98% # attempts to use FU when none available
system.switch_cpus.iq.fu_full::SimdShaSigma2            0      0.00%     99.98% # attempts to use FU when none available
system.switch_cpus.iq.fu_full::SimdShaSigma3            0      0.00%     99.98% # attempts to use FU when none available
system.switch_cpus.iq.fu_full::SimdPredAlu            0      0.00%     99.98% # attempts to use FU when none available
system.switch_cpus.iq.fu_full::MemRead             43      0.01%     99.99% # attempts to use FU when none available
system.switch_cpus.iq.fu_full::MemWrite            43      0.01%    100.00% # attempts to use FU when none available
system.switch_cpus.iq.fu_full::FloatMemRead            0      0.00%    100.00% # attempts to use FU when none available
system.switch_cpus.iq.fu_full::FloatMemWrite            0      0.00%    100.00% # attempts to use FU when none available
system.switch_cpus.iq.fu_full::IprAccess            0      0.00%    100.00% # attempts to use FU when none available
system.switch_cpus.iq.fu_full::InstPrefetch            0      0.00%    100.00% # attempts to use FU when none available
system.switch_cpus.iq.int_alu_accesses       20828443                       # Number of integer alu accesses
system.switch_cpus.iq.int_inst_queue_reads     51935068                       # Number of integer instruction queue reads
system.switch_cpus.iq.int_inst_queue_wakeup_accesses     20415943                       # Number of integer instruction queue wakeup accesses
system.switch_cpus.iq.int_inst_queue_writes     20431222                       # Number of integer instruction queue writes
system.switch_cpus.iq.iqInstsAdded           20420430                       # Number of instructions added to the IQ (excludes non-spec)
system.switch_cpus.iq.iqInstsIssued          20417267                       # Number of instructions issued
system.switch_cpus.iq.iqSquashedInstsExamined        10750                       # Number of squashed instructions iterated over during squash; mainly for profiling
system.switch_cpus.iq.iqSquashedInstsIssued           63                       # Number of squashed instructions issued
system.switch_cpus.iq.iqSquashedOperandsExamined        16379                       # Number of squashed operands that are examined and possibly removed from graph
system.switch_cpus.iq.issued_per_cycle::samples     10689112                       # Number of insts issued each cycle
system.switch_cpus.iq.issued_per_cycle::mean     1.910099                       # Number of insts issued each cycle
system.switch_cpus.iq.issued_per_cycle::stdev     2.637572                       # Number of insts issued each cycle
system.switch_cpus.iq.issued_per_cycle::underflows            0      0.00%      0.00% # Number of insts issued each cycle
system.switch_cpus.iq.issued_per_cycle::0      6187381     57.88%     57.88% # Number of insts issued each cycle
system.switch_cpus.iq.issued_per_cycle::1       611305      5.72%     63.60% # Number of insts issued each cycle
system.switch_cpus.iq.issued_per_cycle::2       381181      3.57%     67.17% # Number of insts issued each cycle
system.switch_cpus.iq.issued_per_cycle::3       432769      4.05%     71.22% # Number of insts issued each cycle
system.switch_cpus.iq.issued_per_cycle::4       612832      5.73%     76.95% # Number of insts issued each cycle
system.switch_cpus.iq.issued_per_cycle::5       710741      6.65%     83.60% # Number of insts issued each cycle
system.switch_cpus.iq.issued_per_cycle::6       907364      8.49%     92.09% # Number of insts issued each cycle
system.switch_cpus.iq.issued_per_cycle::7       468236      4.38%     96.47% # Number of insts issued each cycle
system.switch_cpus.iq.issued_per_cycle::8       377303      3.53%    100.00% # Number of insts issued each cycle
system.switch_cpus.iq.issued_per_cycle::overflows            0      0.00%    100.00% # Number of insts issued each cycle
system.switch_cpus.iq.issued_per_cycle::min_value            0                       # Number of insts issued each cycle
system.switch_cpus.iq.issued_per_cycle::max_value            8                       # Number of insts issued each cycle
system.switch_cpus.iq.issued_per_cycle::total     10689112                       # Number of insts issued each cycle
system.switch_cpus.iq.rate                   1.909415                       # Inst issue rate
system.switch_cpus.iq.vec_alu_accesses              0                       # Number of vector alu accesses
system.switch_cpus.iq.vec_inst_queue_reads            0                       # Number of vector instruction queue reads
system.switch_cpus.iq.vec_inst_queue_wakeup_accesses            0                       # Number of vector instruction queue wakeup accesses
system.switch_cpus.iq.vec_inst_queue_writes            0                       # Number of vector instruction queue writes
system.switch_cpus.itb.rdAccesses                   0                       # TLB accesses on read requests
system.switch_cpus.itb.rdMisses                     0                       # TLB misses on read requests
system.switch_cpus.itb.wrAccesses              823195                       # TLB accesses on write requests
system.switch_cpus.itb.wrMisses                    49                       # TLB misses on write requests
system.switch_cpus.memDep0.conflictingLoads          222                       # Number of conflicting loads.
system.switch_cpus.memDep0.conflictingStores           58                       # Number of conflicting stores.
system.switch_cpus.memDep0.insertedLoads      4522985                       # Number of loads inserted to the mem dependence unit.
system.switch_cpus.memDep0.insertedStores       137900                       # Number of stores inserted to the mem dependence unit.
system.switch_cpus.misc_regfile_reads         9866076                       # number of misc regfile reads
system.switch_cpus.misc_regfile_writes              1                       # number of misc regfile writes
system.switch_cpus.numCycles                 10692942                       # number of cpu cycles simulated
system.switch_cpus.numWorkItemsCompleted            0                       # number of work items this cpu completed
system.switch_cpus.numWorkItemsStarted              0                       # number of work items this cpu started
system.switch_cpus.rename.BlockCycles          148556                       # Number of cycles rename is blocking
system.switch_cpus.rename.CommittedMaps      23696892                       # Number of HB maps that are committed
system.switch_cpus.rename.IQFullEvents          69429                       # Number of times rename has blocked due to IQ full
system.switch_cpus.rename.IdleCycles           750622                       # Number of cycles rename is idle
system.switch_cpus.rename.LQFullEvents        6923203                       # Number of times rename has blocked due to LQ full
system.switch_cpus.rename.ROBFullEvents           628                       # Number of times rename has blocked due to ROB full
system.switch_cpus.rename.RenameLookups      58936664                       # Number of register rename lookups that rename has made
system.switch_cpus.rename.RenamedInsts       20422461                       # Number of instructions processed by rename
system.switch_cpus.rename.RenamedOperands     23711107                       # Number of destination operands rename has renamed
system.switch_cpus.rename.RunCycles           2820383                       # Number of cycles rename is running
system.switch_cpus.rename.SquashCycles            331                       # Number of cycles rename is squashing
system.switch_cpus.rename.UnblockCycles       6969208                       # Number of cycles rename is unblocking
system.switch_cpus.rename.UndoneMaps            14078                       # Number of HB maps that are undone due to squashing
system.switch_cpus.rename.int_rename_lookups     36048460                       # Number of integer rename lookups
system.switch_cpus.rename.serializeStallCycles            0                       # count of cycles rename stalled for serializing inst
system.switch_cpus.rename.serializingInsts            0                       # count of serializing insts renamed
system.switch_cpus.rename.skidInsts           1355497                       # count of insts added to the skid buffer
system.switch_cpus.rename.tempSerializingInsts            0                       # count of temporary serializing insts renamed
system.switch_cpus.rob.rob_reads             28753912                       # The number of ROB reads
system.switch_cpus.rob.rob_writes            40842592                       # The number of ROB writes
system.switch_cpus.timesIdled                      44                       # Number of times that the entire CPU went into an idle state and unscheduled itself
system.tol2bus.snoop_filter.hit_multi_requests            0                       # Number of requests hitting in the snoop filter with multiple (>1) holders of the requested data.
system.tol2bus.snoop_filter.hit_multi_snoops            0                       # Number of snoops hitting in the snoop filter with multiple (>1) holders of the requested data.
system.tol2bus.snoop_filter.hit_single_requests       101602                       # Number of requests hitting in the snoop filter with a single holder of the requested data.
system.tol2bus.snoop_filter.hit_single_snoops        23678                       # Number of snoops hitting in the snoop filter with a single holder of the requested data.
system.tol2bus.snoop_filter.tot_requests       204275                       # Total number of requests made to the snoop filter.
system.tol2bus.snoop_filter.tot_snoops          23678                       # Total number of snoops made to the snoop filter.
system.membus.pwrStateResidencyTicks::UNDEFINED 448279201521500                       # Cumulative time (in ticks) in various power states
system.membus.trans_dist::ReadResp              55725                       # Transaction distribution
system.membus.trans_dist::WritebackDirty           19                       # Transaction distribution
system.membus.trans_dist::CleanEvict            47474                       # Transaction distribution
system.membus.trans_dist::ReadExReq                 7                       # Transaction distribution
system.membus.trans_dist::ReadExResp                7                       # Transaction distribution
system.membus.trans_dist::ReadSharedReq         55725                       # Transaction distribution
system.membus.pkt_count_system.l2.mem_side::system.mem_ctrls.port       158957                       # Packet count per connected master and slave (bytes)
system.membus.pkt_count_system.l2.mem_side::total       158957                       # Packet count per connected master and slave (bytes)
system.membus.pkt_count::total                 158957                       # Packet count per connected master and slave (bytes)
system.membus.pkt_size_system.l2.mem_side::system.mem_ctrls.port      3568064                       # Cumulative packet size per connected master and slave (bytes)
system.membus.pkt_size_system.l2.mem_side::total      3568064                       # Cumulative packet size per connected master and slave (bytes)
system.membus.pkt_size::total                 3568064                       # Cumulative packet size per connected master and slave (bytes)
system.membus.snoops                                0                       # Total snoops (count)
system.membus.snoopTraffic                          0                       # Total snoop traffic (bytes)
system.membus.snoop_fanout::samples             55732                       # Request fanout histogram
system.membus.snoop_fanout::mean                    0                       # Request fanout histogram
system.membus.snoop_fanout::stdev                   0                       # Request fanout histogram
system.membus.snoop_fanout::underflows              0      0.00%      0.00% # Request fanout histogram
system.membus.snoop_fanout::0                   55732    100.00%    100.00% # Request fanout histogram
system.membus.snoop_fanout::1                       0      0.00%    100.00% # Request fanout histogram
system.membus.snoop_fanout::overflows               0      0.00%    100.00% # Request fanout histogram
system.membus.snoop_fanout::min_value               0                       # Request fanout histogram
system.membus.snoop_fanout::max_value               0                       # Request fanout histogram
system.membus.snoop_fanout::total               55732                       # Request fanout histogram
system.membus.reqLayer2.occupancy           116137500                       # Layer occupancy (ticks)
system.membus.reqLayer2.utilization               2.2                       # Layer utilization (%)
system.membus.respLayer1.occupancy          295905000                       # Layer occupancy (ticks)
system.membus.respLayer1.utilization              5.5                       # Layer utilization (%)
system.switch_cpus.pwrStateResidencyTicks::OFF   5346481500                       # Cumulative time (in ticks) in various power states
system.switch_cpus.dtb.walker.pwrStateResidencyTicks::UNDEFINED 448279201521500                       # Cumulative time (in ticks) in various power states
system.switch_cpus.itb.walker.pwrStateResidencyTicks::UNDEFINED 448279201521500                       # Cumulative time (in ticks) in various power states
system.tol2bus.pwrStateResidencyTicks::UNDEFINED 448279201521500                       # Cumulative time (in ticks) in various power states
system.tol2bus.trans_dist::ReadResp            102660                       # Transaction distribution
system.tol2bus.trans_dist::WritebackDirty           88                       # Transaction distribution
system.tol2bus.trans_dist::CleanEvict          149063                       # Transaction distribution
system.tol2bus.trans_dist::ReadExReq               12                       # Transaction distribution
system.tol2bus.trans_dist::ReadExResp              12                       # Transaction distribution
system.tol2bus.trans_dist::ReadCleanReq            46                       # Transaction distribution
system.tol2bus.trans_dist::ReadSharedReq       102615                       # Transaction distribution
system.tol2bus.pkt_count_system.cpu.icache.mem_side::system.l2.cpu_side           92                       # Packet count per connected master and slave (bytes)
system.tol2bus.pkt_count_system.cpu.dcache.mem_side::system.l2.cpu_side       306855                       # Packet count per connected master and slave (bytes)
system.tol2bus.pkt_count::total                306947                       # Packet count per connected master and slave (bytes)
system.tol2bus.pkt_size_system.cpu.icache.mem_side::system.l2.cpu_side         2944                       # Cumulative packet size per connected master and slave (bytes)
system.tol2bus.pkt_size_system.cpu.dcache.mem_side::system.l2.cpu_side      6572480                       # Cumulative packet size per connected master and slave (bytes)
system.tol2bus.pkt_size::total                6575424                       # Cumulative packet size per connected master and slave (bytes)
system.tol2bus.snoops                           47549                       # Total snoops (count)
system.tol2bus.snoopTraffic                      1216                       # Total snoop traffic (bytes)
system.tol2bus.snoop_fanout::samples           150222                       # Request fanout histogram
system.tol2bus.snoop_fanout::mean            0.157620                       # Request fanout histogram
system.tol2bus.snoop_fanout::stdev           0.364386                       # Request fanout histogram
system.tol2bus.snoop_fanout::underflows             0      0.00%      0.00% # Request fanout histogram
system.tol2bus.snoop_fanout::0                 126544     84.24%     84.24% # Request fanout histogram
system.tol2bus.snoop_fanout::1                  23678     15.76%    100.00% # Request fanout histogram
system.tol2bus.snoop_fanout::2                      0      0.00%    100.00% # Request fanout histogram
system.tol2bus.snoop_fanout::3                      0      0.00%    100.00% # Request fanout histogram
system.tol2bus.snoop_fanout::4                      0      0.00%    100.00% # Request fanout histogram
system.tol2bus.snoop_fanout::overflows              0      0.00%    100.00% # Request fanout histogram
system.tol2bus.snoop_fanout::min_value              0                       # Request fanout histogram
system.tol2bus.snoop_fanout::max_value              1                       # Request fanout histogram
system.tol2bus.snoop_fanout::total             150222                       # Request fanout histogram
system.tol2bus.reqLayer0.occupancy          102203500                       # Layer occupancy (ticks)
system.tol2bus.reqLayer0.utilization              1.9                       # Layer utilization (%)
system.tol2bus.respLayer1.occupancy         153933000                       # Layer occupancy (ticks)
system.tol2bus.respLayer1.utilization             2.9                       # Layer utilization (%)
system.tol2bus.respLayer0.occupancy             66000                       # Layer occupancy (ticks)
system.tol2bus.respLayer0.utilization             0.0                       # Layer utilization (%)
system.voltage_domain.voltage                       1                       # Voltage in Volts
system.clk_domain.clock                          1000                       # Clock period in ticks
system.l2.pwrStateResidencyTicks::UNDEFINED 448279201521500                       # Cumulative time (in ticks) in various power states
system.l2.demand_hits::.switch_cpus.data        46940                       # number of demand (read+write) hits
system.l2.demand_hits::total                    46940                       # number of demand (read+write) hits
system.l2.overall_hits::.switch_cpus.data        46940                       # number of overall hits
system.l2.overall_hits::total                   46940                       # number of overall hits
system.l2.demand_misses::.cpu.inst                  2                       # number of demand (read+write) misses
system.l2.demand_misses::.cpu.data                  4                       # number of demand (read+write) misses
system.l2.demand_misses::.switch_cpus.inst           44                       # number of demand (read+write) misses
system.l2.demand_misses::.switch_cpus.data        55683                       # number of demand (read+write) misses
system.l2.demand_misses::total                  55733                       # number of demand (read+write) misses
system.l2.overall_misses::.cpu.inst                 2                       # number of overall misses
system.l2.overall_misses::.cpu.data                 4                       # number of overall misses
system.l2.overall_misses::.switch_cpus.inst           44                       # number of overall misses
system.l2.overall_misses::.switch_cpus.data        55683                       # number of overall misses
system.l2.overall_misses::total                 55733                       # number of overall misses
system.l2.demand_miss_latency::.switch_cpus.inst      4012000                       # number of demand (read+write) miss cycles
system.l2.demand_miss_latency::.switch_cpus.data   4229981000                       # number of demand (read+write) miss cycles
system.l2.demand_miss_latency::total       4233993000                       # number of demand (read+write) miss cycles
system.l2.overall_miss_latency::.switch_cpus.inst      4012000                       # number of overall miss cycles
system.l2.overall_miss_latency::.switch_cpus.data   4229981000                       # number of overall miss cycles
system.l2.overall_miss_latency::total      4233993000                       # number of overall miss cycles
system.l2.demand_accesses::.cpu.inst                2                       # number of demand (read+write) accesses
system.l2.demand_accesses::.cpu.data                4                       # number of demand (read+write) accesses
system.l2.demand_accesses::.switch_cpus.inst           44                       # number of demand (read+write) accesses
system.l2.demand_accesses::.switch_cpus.data       102623                       # number of demand (read+write) accesses
system.l2.demand_accesses::total               102673                       # number of demand (read+write) accesses
system.l2.overall_accesses::.cpu.inst               2                       # number of overall (read+write) accesses
system.l2.overall_accesses::.cpu.data               4                       # number of overall (read+write) accesses
system.l2.overall_accesses::.switch_cpus.inst           44                       # number of overall (read+write) accesses
system.l2.overall_accesses::.switch_cpus.data       102623                       # number of overall (read+write) accesses
system.l2.overall_accesses::total              102673                       # number of overall (read+write) accesses
system.l2.demand_miss_rate::.cpu.inst               1                       # miss rate for demand accesses
system.l2.demand_miss_rate::.cpu.data               1                       # miss rate for demand accesses
system.l2.demand_miss_rate::.switch_cpus.inst            1                       # miss rate for demand accesses
system.l2.demand_miss_rate::.switch_cpus.data     0.542598                       # miss rate for demand accesses
system.l2.demand_miss_rate::total            0.542820                       # miss rate for demand accesses
system.l2.overall_miss_rate::.cpu.inst              1                       # miss rate for overall accesses
system.l2.overall_miss_rate::.cpu.data              1                       # miss rate for overall accesses
system.l2.overall_miss_rate::.switch_cpus.inst            1                       # miss rate for overall accesses
system.l2.overall_miss_rate::.switch_cpus.data     0.542598                       # miss rate for overall accesses
system.l2.overall_miss_rate::total           0.542820                       # miss rate for overall accesses
system.l2.demand_avg_miss_latency::.switch_cpus.inst 91181.818182                       # average overall miss latency
system.l2.demand_avg_miss_latency::.switch_cpus.data 75965.393388                       # average overall miss latency
system.l2.demand_avg_miss_latency::total 75969.228285                       # average overall miss latency
system.l2.overall_avg_miss_latency::.switch_cpus.inst 91181.818182                       # average overall miss latency
system.l2.overall_avg_miss_latency::.switch_cpus.data 75965.393388                       # average overall miss latency
system.l2.overall_avg_miss_latency::total 75969.228285                       # average overall miss latency
system.l2.blocked_cycles::no_mshrs                  0                       # number of cycles access was blocked
system.l2.blocked_cycles::no_targets                0                       # number of cycles access was blocked
system.l2.blocked::no_mshrs                         0                       # number of cycles access was blocked
system.l2.blocked::no_targets                       0                       # number of cycles access was blocked
system.l2.avg_blocked_cycles::no_mshrs            nan                       # average number of cycles each access was blocked
system.l2.avg_blocked_cycles::no_targets          nan                       # average number of cycles each access was blocked
system.l2.writebacks::.writebacks                  19                       # number of writebacks
system.l2.writebacks::total                        19                       # number of writebacks
system.l2.demand_mshr_misses::.switch_cpus.inst           44                       # number of demand (read+write) MSHR misses
system.l2.demand_mshr_misses::.switch_cpus.data        55683                       # number of demand (read+write) MSHR misses
system.l2.demand_mshr_misses::total             55727                       # number of demand (read+write) MSHR misses
system.l2.overall_mshr_misses::.switch_cpus.inst           44                       # number of overall MSHR misses
system.l2.overall_mshr_misses::.switch_cpus.data        55683                       # number of overall MSHR misses
system.l2.overall_mshr_misses::total            55727                       # number of overall MSHR misses
system.l2.demand_mshr_miss_latency::.switch_cpus.inst      3572000                       # number of demand (read+write) MSHR miss cycles
system.l2.demand_mshr_miss_latency::.switch_cpus.data   3673161000                       # number of demand (read+write) MSHR miss cycles
system.l2.demand_mshr_miss_latency::total   3676733000                       # number of demand (read+write) MSHR miss cycles
system.l2.overall_mshr_miss_latency::.switch_cpus.inst      3572000                       # number of overall MSHR miss cycles
system.l2.overall_mshr_miss_latency::.switch_cpus.data   3673161000                       # number of overall MSHR miss cycles
system.l2.overall_mshr_miss_latency::total   3676733000                       # number of overall MSHR miss cycles
system.l2.demand_mshr_miss_rate::.switch_cpus.inst            1                       # mshr miss rate for demand accesses
system.l2.demand_mshr_miss_rate::.switch_cpus.data     0.542598                       # mshr miss rate for demand accesses
system.l2.demand_mshr_miss_rate::total       0.542762                       # mshr miss rate for demand accesses
system.l2.overall_mshr_miss_rate::.switch_cpus.inst            1                       # mshr miss rate for overall accesses
system.l2.overall_mshr_miss_rate::.switch_cpus.data     0.542598                       # mshr miss rate for overall accesses
system.l2.overall_mshr_miss_rate::total      0.542762                       # mshr miss rate for overall accesses
system.l2.demand_avg_mshr_miss_latency::.switch_cpus.inst 81181.818182                       # average overall mshr miss latency
system.l2.demand_avg_mshr_miss_latency::.switch_cpus.data 65965.572976                       # average overall mshr miss latency
system.l2.demand_avg_mshr_miss_latency::total 65977.587166                       # average overall mshr miss latency
system.l2.overall_avg_mshr_miss_latency::.switch_cpus.inst 81181.818182                       # average overall mshr miss latency
system.l2.overall_avg_mshr_miss_latency::.switch_cpus.data 65965.572976                       # average overall mshr miss latency
system.l2.overall_avg_mshr_miss_latency::total 65977.587166                       # average overall mshr miss latency
system.l2.replacements                          47549                       # number of replacements
system.l2.WritebackDirty_hits::.writebacks           69                       # number of WritebackDirty hits
system.l2.WritebackDirty_hits::total               69                       # number of WritebackDirty hits
system.l2.WritebackDirty_accesses::.writebacks           69                       # number of WritebackDirty accesses(hits+misses)
system.l2.WritebackDirty_accesses::total           69                       # number of WritebackDirty accesses(hits+misses)
system.l2.CleanEvict_mshr_misses::.writebacks        23622                       # number of CleanEvict MSHR misses
system.l2.CleanEvict_mshr_misses::total         23622                       # number of CleanEvict MSHR misses
system.l2.CleanEvict_mshr_miss_rate::.writebacks          inf                       # mshr miss rate for CleanEvict accesses
system.l2.CleanEvict_mshr_miss_rate::total          inf                       # mshr miss rate for CleanEvict accesses
system.l2.ReadExReq_hits::.switch_cpus.data            5                       # number of ReadExReq hits
system.l2.ReadExReq_hits::total                     5                       # number of ReadExReq hits
system.l2.ReadExReq_misses::.switch_cpus.data            7                       # number of ReadExReq misses
system.l2.ReadExReq_misses::total                   7                       # number of ReadExReq misses
system.l2.ReadExReq_miss_latency::.switch_cpus.data       399500                       # number of ReadExReq miss cycles
system.l2.ReadExReq_miss_latency::total        399500                       # number of ReadExReq miss cycles
system.l2.ReadExReq_accesses::.switch_cpus.data           12                       # number of ReadExReq accesses(hits+misses)
system.l2.ReadExReq_accesses::total                12                       # number of ReadExReq accesses(hits+misses)
system.l2.ReadExReq_miss_rate::.switch_cpus.data     0.583333                       # miss rate for ReadExReq accesses
system.l2.ReadExReq_miss_rate::total         0.583333                       # miss rate for ReadExReq accesses
system.l2.ReadExReq_avg_miss_latency::.switch_cpus.data 57071.428571                       # average ReadExReq miss latency
system.l2.ReadExReq_avg_miss_latency::total 57071.428571                       # average ReadExReq miss latency
system.l2.ReadExReq_mshr_misses::.switch_cpus.data            7                       # number of ReadExReq MSHR misses
system.l2.ReadExReq_mshr_misses::total              7                       # number of ReadExReq MSHR misses
system.l2.ReadExReq_mshr_miss_latency::.switch_cpus.data       329500                       # number of ReadExReq MSHR miss cycles
system.l2.ReadExReq_mshr_miss_latency::total       329500                       # number of ReadExReq MSHR miss cycles
system.l2.ReadExReq_mshr_miss_rate::.switch_cpus.data     0.583333                       # mshr miss rate for ReadExReq accesses
system.l2.ReadExReq_mshr_miss_rate::total     0.583333                       # mshr miss rate for ReadExReq accesses
system.l2.ReadExReq_avg_mshr_miss_latency::.switch_cpus.data 47071.428571                       # average ReadExReq mshr miss latency
system.l2.ReadExReq_avg_mshr_miss_latency::total 47071.428571                       # average ReadExReq mshr miss latency
system.l2.ReadCleanReq_misses::.cpu.inst            2                       # number of ReadCleanReq misses
system.l2.ReadCleanReq_misses::.switch_cpus.inst           44                       # number of ReadCleanReq misses
system.l2.ReadCleanReq_misses::total               46                       # number of ReadCleanReq misses
system.l2.ReadCleanReq_miss_latency::.switch_cpus.inst      4012000                       # number of ReadCleanReq miss cycles
system.l2.ReadCleanReq_miss_latency::total      4012000                       # number of ReadCleanReq miss cycles
system.l2.ReadCleanReq_accesses::.cpu.inst            2                       # number of ReadCleanReq accesses(hits+misses)
system.l2.ReadCleanReq_accesses::.switch_cpus.inst           44                       # number of ReadCleanReq accesses(hits+misses)
system.l2.ReadCleanReq_accesses::total             46                       # number of ReadCleanReq accesses(hits+misses)
system.l2.ReadCleanReq_miss_rate::.cpu.inst            1                       # miss rate for ReadCleanReq accesses
system.l2.ReadCleanReq_miss_rate::.switch_cpus.inst            1                       # miss rate for ReadCleanReq accesses
system.l2.ReadCleanReq_miss_rate::total             1                       # miss rate for ReadCleanReq accesses
system.l2.ReadCleanReq_avg_miss_latency::.switch_cpus.inst 91181.818182                       # average ReadCleanReq miss latency
system.l2.ReadCleanReq_avg_miss_latency::total 87217.391304                       # average ReadCleanReq miss latency
system.l2.ReadCleanReq_mshr_misses::.switch_cpus.inst           44                       # number of ReadCleanReq MSHR misses
system.l2.ReadCleanReq_mshr_misses::total           44                       # number of ReadCleanReq MSHR misses
system.l2.ReadCleanReq_mshr_miss_latency::.switch_cpus.inst      3572000                       # number of ReadCleanReq MSHR miss cycles
system.l2.ReadCleanReq_mshr_miss_latency::total      3572000                       # number of ReadCleanReq MSHR miss cycles
system.l2.ReadCleanReq_mshr_miss_rate::.switch_cpus.inst            1                       # mshr miss rate for ReadCleanReq accesses
system.l2.ReadCleanReq_mshr_miss_rate::total     0.956522                       # mshr miss rate for ReadCleanReq accesses
system.l2.ReadCleanReq_avg_mshr_miss_latency::.switch_cpus.inst 81181.818182                       # average ReadCleanReq mshr miss latency
system.l2.ReadCleanReq_avg_mshr_miss_latency::total 81181.818182                       # average ReadCleanReq mshr miss latency
system.l2.ReadSharedReq_hits::.switch_cpus.data        46935                       # number of ReadSharedReq hits
system.l2.ReadSharedReq_hits::total             46935                       # number of ReadSharedReq hits
system.l2.ReadSharedReq_misses::.cpu.data            4                       # number of ReadSharedReq misses
system.l2.ReadSharedReq_misses::.switch_cpus.data        55676                       # number of ReadSharedReq misses
[...]
system.cpu.icache.tags.age_task_id_blocks_1024::4           49                       # Occupied blocks per task id
system.cpu.icache.tags.occ_task_id_percent::1024     0.103516                       # Percentage of cache occupancy per task id
system.cpu.icache.tags.tag_accesses           6581405                       # Number of tag accesses
system.cpu.icache.tags.data_accesses          6581405                       # Number of data accesses
system.cpu.dtb.walker.pwrStateResidencyTicks::UNDEFINED 448296552661000                       # Cumulative time (in ticks) in various power states
system.cpu.interrupts.clk_domain.clock           8000                       # Clock period in ticks
system.cpu.itb_walker_cache.pwrStateResidencyTicks::UNDEFINED 448296552661000                       # Cumulative time (in ticks) in various power states
system.cpu.itb_walker_cache.blocked_cycles::no_mshrs            0                       # number of cycles access was blocked
system.cpu.itb_walker_cache.blocked_cycles::no_targets            0                       # number of cycles access was blocked
system.cpu.itb_walker_cache.blocked::no_mshrs            0                       # number of cycles access was blocked
system.cpu.itb_walker_cache.blocked::no_targets            0                       # number of cycles access was blocked
system.cpu.itb_walker_cache.avg_blocked_cycles::no_mshrs          nan                       # average number of cycles each access was blocked
system.cpu.itb_walker_cache.avg_blocked_cycles::no_targets          nan                       # average number of cycles each access was blocked
system.cpu.itb_walker_cache.replacements            0                       # number of replacements
system.cpu.itb_walker_cache.tags.pwrStateResidencyTicks::UNDEFINED 448296552661000                       # Cumulative time (in ticks) in various power states
system.cpu.itb_walker_cache.tags.tagsinuse            0                       # Cycle average of tags in use
system.cpu.itb_walker_cache.tags.total_refs            0                       # Total number of references to valid blocks.
system.cpu.itb_walker_cache.tags.sampled_refs            0                       # Sample count of references to valid blocks.
system.cpu.itb_walker_cache.tags.avg_refs          nan                       # Average number of references to valid blocks.
system.cpu.itb_walker_cache.tags.warmup_cycle            0                       # Cycle when the warmup percentage was hit.
system.cpu.itb_walker_cache.tags.tag_accesses            0                       # Number of tag accesses
system.cpu.itb_walker_cache.tags.data_accesses            0                       # Number of data accesses
system.cpu.itb.walker.pwrStateResidencyTicks::UNDEFINED 448296552661000                       # Cumulative time (in ticks) in various power states
system.cpu.dtb_walker_cache.pwrStateResidencyTicks::UNDEFINED 448296552661000                       # Cumulative time (in ticks) in various power states
system.cpu.dtb_walker_cache.blocked_cycles::no_mshrs            0                       # number of cycles access was blocked
system.cpu.dtb_walker_cache.blocked_cycles::no_targets            0                       # number of cycles access was blocked
system.cpu.dtb_walker_cache.blocked::no_mshrs            0                       # number of cycles access was blocked
system.cpu.dtb_walker_cache.blocked::no_targets            0                       # number of cycles access was blocked
system.cpu.dtb_walker_cache.avg_blocked_cycles::no_mshrs          nan                       # average number of cycles each access was blocked
system.cpu.dtb_walker_cache.avg_blocked_cycles::no_targets          nan                       # average number of cycles each access was blocked
system.cpu.dtb_walker_cache.replacements            0                       # number of replacements
system.cpu.dtb_walker_cache.tags.pwrStateResidencyTicks::UNDEFINED 448296552661000                       # Cumulative time (in ticks) in various power states
system.cpu.dtb_walker_cache.tags.tagsinuse            0                       # Cycle average of tags in use
system.cpu.dtb_walker_cache.tags.total_refs            0                       # Total number of references to valid blocks.
system.cpu.dtb_walker_cache.tags.sampled_refs            0                       # Sample count of references to valid blocks.
system.cpu.dtb_walker_cache.tags.avg_refs          nan                       # Average number of references to valid blocks.
system.cpu.dtb_walker_cache.tags.warmup_cycle            0                       # Cycle when the warmup percentage was hit.
system.cpu.dtb_walker_cache.tags.tag_accesses            0                       # Number of tag accesses
system.cpu.dtb_walker_cache.tags.data_accesses            0                       # Number of data accesses
system.cpu.dcache.pwrStateResidencyTicks::UNDEFINED 448296552661000                       # Cumulative time (in ticks) in various power states
system.cpu.dcache.demand_hits::.switch_cpus.data     15689794                       # number of demand (read+write) hits
system.cpu.dcache.demand_hits::total         15689794                       # number of demand (read+write) hits
system.cpu.dcache.overall_hits::.switch_cpus.data     15689794                       # number of overall hits
system.cpu.dcache.overall_hits::total        15689794                       # number of overall hits
system.cpu.dcache.demand_misses::.cpu.data            4                       # number of demand (read+write) misses
system.cpu.dcache.demand_misses::.switch_cpus.data      2944118                       # number of demand (read+write) misses
system.cpu.dcache.demand_misses::total        2944122                       # number of demand (read+write) misses
system.cpu.dcache.overall_misses::.cpu.data            4                       # number of overall misses
system.cpu.dcache.overall_misses::.switch_cpus.data      2944118                       # number of overall misses
system.cpu.dcache.overall_misses::total       2944122                       # number of overall misses
system.cpu.dcache.demand_miss_latency::.switch_cpus.data 134726925500                       # number of demand (read+write) miss cycles
system.cpu.dcache.demand_miss_latency::total 134726925500                       # number of demand (read+write) miss cycles
system.cpu.dcache.overall_miss_latency::.switch_cpus.data 134726925500                       # number of overall miss cycles
system.cpu.dcache.overall_miss_latency::total 134726925500                       # number of overall miss cycles
system.cpu.dcache.demand_accesses::.cpu.data            4                       # number of demand (read+write) accesses
system.cpu.dcache.demand_accesses::.switch_cpus.data     18633912                       # number of demand (read+write) accesses
system.cpu.dcache.demand_accesses::total     18633916                       # number of demand (read+write) accesses
system.cpu.dcache.overall_accesses::.cpu.data            4                       # number of overall (read+write) accesses
system.cpu.dcache.overall_accesses::.switch_cpus.data     18633912                       # number of overall (read+write) accesses
system.cpu.dcache.overall_accesses::total     18633916                       # number of overall (read+write) accesses
system.cpu.dcache.demand_miss_rate::.cpu.data            1                       # miss rate for demand accesses
system.cpu.dcache.demand_miss_rate::.switch_cpus.data     0.157998                       # miss rate for demand accesses
system.cpu.dcache.demand_miss_rate::total     0.157998                       # miss rate for demand accesses
system.cpu.dcache.overall_miss_rate::.cpu.data            1                       # miss rate for overall accesses
system.cpu.dcache.overall_miss_rate::.switch_cpus.data     0.157998                       # miss rate for overall accesses
system.cpu.dcache.overall_miss_rate::total     0.157998                       # miss rate for overall accesses
system.cpu.dcache.demand_avg_miss_latency::.switch_cpus.data 45761.387791                       # average overall miss latency
system.cpu.dcache.demand_avg_miss_latency::total 45761.325618                       # average overall miss latency
system.cpu.dcache.overall_avg_miss_latency::.switch_cpus.data 45761.387791                       # average overall miss latency
system.cpu.dcache.overall_avg_miss_latency::total 45761.325618                       # average overall miss latency
system.cpu.dcache.blocked_cycles::no_mshrs          859                       # number of cycles access was blocked
system.cpu.dcache.blocked_cycles::no_targets            0                       # number of cycles access was blocked
system.cpu.dcache.blocked::no_mshrs                52                       # number of cycles access was blocked
system.cpu.dcache.blocked::no_targets               0                       # number of cycles access was blocked
system.cpu.dcache.avg_blocked_cycles::no_mshrs    16.519231                       # average number of cycles each access was blocked
system.cpu.dcache.avg_blocked_cycles::no_targets          nan                       # average number of cycles each access was blocked
system.cpu.dcache.writebacks::.writebacks          284                       # number of writebacks
system.cpu.dcache.writebacks::total               284                       # number of writebacks
system.cpu.dcache.demand_mshr_hits::.switch_cpus.data      2533584                       # number of demand (read+write) MSHR hits
system.cpu.dcache.demand_mshr_hits::total      2533584                       # number of demand (read+write) MSHR hits
system.cpu.dcache.overall_mshr_hits::.switch_cpus.data      2533584                       # number of overall MSHR hits
system.cpu.dcache.overall_mshr_hits::total      2533584                       # number of overall MSHR hits
system.cpu.dcache.demand_mshr_misses::.switch_cpus.data       410534                       # number of demand (read+write) MSHR misses
system.cpu.dcache.demand_mshr_misses::total       410534                       # number of demand (read+write) MSHR misses
system.cpu.dcache.overall_mshr_misses::.switch_cpus.data       410534                       # number of overall MSHR misses
system.cpu.dcache.overall_mshr_misses::total       410534                       # number of overall MSHR misses
system.cpu.dcache.demand_mshr_miss_latency::.switch_cpus.data  21031731500                       # number of demand (read+write) MSHR miss cycles
system.cpu.dcache.demand_mshr_miss_latency::total  21031731500                       # number of demand (read+write) MSHR miss cycles
system.cpu.dcache.overall_mshr_miss_latency::.switch_cpus.data  21031731500                       # number of overall MSHR miss cycles
system.cpu.dcache.overall_mshr_miss_latency::total  21031731500                       # number of overall MSHR miss cycles
system.cpu.dcache.demand_mshr_miss_rate::.switch_cpus.data     0.022032                       # mshr miss rate for demand accesses
system.cpu.dcache.demand_mshr_miss_rate::total     0.022032                       # mshr miss rate for demand accesses
system.cpu.dcache.overall_mshr_miss_rate::.switch_cpus.data     0.022032                       # mshr miss rate for overall accesses
system.cpu.dcache.overall_mshr_miss_rate::total     0.022032                       # mshr miss rate for overall accesses
system.cpu.dcache.demand_avg_mshr_miss_latency::.switch_cpus.data 51230.181909                       # average overall mshr miss latency
system.cpu.dcache.demand_avg_mshr_miss_latency::total 51230.181909                       # average overall mshr miss latency
system.cpu.dcache.overall_avg_mshr_miss_latency::.switch_cpus.data 51230.181909                       # average overall mshr miss latency
system.cpu.dcache.overall_avg_mshr_miss_latency::total 51230.181909                       # average overall mshr miss latency
system.cpu.dcache.replacements                 409514                       # number of replacements
system.cpu.dcache.ReadReq_hits::.switch_cpus.data     15140946                       # number of ReadReq hits
system.cpu.dcache.ReadReq_hits::total        15140946                       # number of ReadReq hits
system.cpu.dcache.ReadReq_misses::.cpu.data            4                       # number of ReadReq misses
system.cpu.dcache.ReadReq_misses::.switch_cpus.data      2944045                       # number of ReadReq misses
system.cpu.dcache.ReadReq_misses::total       2944049                       # number of ReadReq misses
system.cpu.dcache.ReadReq_miss_latency::.switch_cpus.data 134724956500                       # number of ReadReq miss cycles
system.cpu.dcache.ReadReq_miss_latency::total 134724956500                       # number of ReadReq miss cycles
system.cpu.dcache.ReadReq_accesses::.cpu.data            4                       # number of ReadReq accesses(hits+misses)
system.cpu.dcache.ReadReq_accesses::.switch_cpus.data     18084991                       # number of ReadReq accesses(hits+misses)
system.cpu.dcache.ReadReq_accesses::total     18084995                       # number of ReadReq accesses(hits+misses)
system.cpu.dcache.ReadReq_miss_rate::.cpu.data            1                       # miss rate for ReadReq accesses
system.cpu.dcache.ReadReq_miss_rate::.switch_cpus.data     0.162789                       # miss rate for ReadReq accesses
system.cpu.dcache.ReadReq_miss_rate::total     0.162790                       # miss rate for ReadReq accesses
system.cpu.dcache.ReadReq_avg_miss_latency::.switch_cpus.data 45761.853674                       # average ReadReq miss latency
system.cpu.dcache.ReadReq_avg_miss_latency::total 45761.791499                       # average ReadReq miss latency
system.cpu.dcache.ReadReq_mshr_hits::.switch_cpus.data      2533571                       # number of ReadReq MSHR hits
system.cpu.dcache.ReadReq_mshr_hits::total      2533571                       # number of ReadReq MSHR hits
system.cpu.dcache.ReadReq_mshr_misses::.switch_cpus.data       410474                       # number of ReadReq MSHR misses
system.cpu.dcache.ReadReq_mshr_misses::total       410474                       # number of ReadReq MSHR misses
system.cpu.dcache.ReadReq_mshr_miss_latency::.switch_cpus.data  21030088500                       # number of ReadReq MSHR miss cycles
system.cpu.dcache.ReadReq_mshr_miss_latency::total  21030088500                       # number of ReadReq MSHR miss cycles
system.cpu.dcache.ReadReq_mshr_miss_rate::.switch_cpus.data     0.022697                       # mshr miss rate for ReadReq accesses
system.cpu.dcache.ReadReq_mshr_miss_rate::total     0.022697                       # mshr miss rate for ReadReq accesses
system.cpu.dcache.ReadReq_avg_mshr_miss_latency::.switch_cpus.data 51233.667662                       # average ReadReq mshr miss latency
system.cpu.dcache.ReadReq_avg_mshr_miss_latency::total 51233.667662                       # average ReadReq mshr miss latency
system.cpu.dcache.WriteReq_hits::.switch_cpus.data       548848                       # number of WriteReq hits
system.cpu.dcache.WriteReq_hits::total         548848                       # number of WriteReq hits
system.cpu.dcache.WriteReq_misses::.switch_cpus.data           73                       # number of WriteReq misses
system.cpu.dcache.WriteReq_misses::total           73                       # number of WriteReq misses
system.cpu.dcache.WriteReq_miss_latency::.switch_cpus.data      1969000                       # number of WriteReq miss cycles
system.cpu.dcache.WriteReq_miss_latency::total      1969000                       # number of WriteReq miss cycles
system.cpu.dcache.WriteReq_accesses::.switch_cpus.data       548921                       # number of WriteReq accesses(hits+misses)
system.cpu.dcache.WriteReq_accesses::total       548921                       # number of WriteReq accesses(hits+misses)
system.cpu.dcache.WriteReq_miss_rate::.switch_cpus.data     0.000133                       # miss rate for WriteReq accesses
system.cpu.dcache.WriteReq_miss_rate::total     0.000133                       # miss rate for WriteReq accesses
system.cpu.dcache.WriteReq_avg_miss_latency::.switch_cpus.data 26972.602740                       # average WriteReq miss latency
system.cpu.dcache.WriteReq_avg_miss_latency::total 26972.602740                       # average WriteReq miss latency
system.cpu.dcache.WriteReq_mshr_hits::.switch_cpus.data           13                       # number of WriteReq MSHR hits
system.cpu.dcache.WriteReq_mshr_hits::total           13                       # number of WriteReq MSHR hits
system.cpu.dcache.WriteReq_mshr_misses::.switch_cpus.data           60                       # number of WriteReq MSHR misses
system.cpu.dcache.WriteReq_mshr_misses::total           60                       # number of WriteReq MSHR misses
system.cpu.dcache.WriteReq_mshr_miss_latency::.switch_cpus.data      1643000                       # number of WriteReq MSHR miss cycles
system.cpu.dcache.WriteReq_mshr_miss_latency::total      1643000                       # number of WriteReq MSHR miss cycles
system.cpu.dcache.WriteReq_mshr_miss_rate::.switch_cpus.data     0.000109                       # mshr miss rate for WriteReq accesses
system.cpu.dcache.WriteReq_mshr_miss_rate::total     0.000109                       # mshr miss rate for WriteReq accesses
system.cpu.dcache.WriteReq_avg_mshr_miss_latency::.switch_cpus.data 27383.333333                       # average WriteReq mshr miss latency
system.cpu.dcache.WriteReq_avg_mshr_miss_latency::total 27383.333333                       # average WriteReq mshr miss latency
system.cpu.dcache.tags.pwrStateResidencyTicks::UNDEFINED 448296552661000                       # Cumulative time (in ticks) in various power states
system.cpu.dcache.tags.tagsinuse             0.051736                       # Cycle average of tags in use
system.cpu.dcache.tags.total_refs            16100332                       # Total number of references to valid blocks.
system.cpu.dcache.tags.sampled_refs            410538                       # Sample count of references to valid blocks.
system.cpu.dcache.tags.avg_refs             39.217641                       # Average number of references to valid blocks.
system.cpu.dcache.tags.warmup_cycle      448273855041500                       # Cycle when the warmup percentage was hit.
system.cpu.dcache.tags.occ_blocks::.cpu.data     0.000001                       # Average occupied blocks per requestor
system.cpu.dcache.tags.occ_blocks::.switch_cpus.data     0.051735                       # Average occupied blocks per requestor
system.cpu.dcache.tags.occ_percent::.cpu.data     0.000000                       # Average percentage of cache occupancy
system.cpu.dcache.tags.occ_percent::.switch_cpus.data     0.000051                       # Average percentage of cache occupancy
system.cpu.dcache.tags.occ_percent::total     0.000051                       # Average percentage of cache occupancy
system.cpu.dcache.tags.occ_task_id_blocks::1024         1024                       # Occupied blocks per task id
system.cpu.dcache.tags.age_task_id_blocks_1024::0          280                       # Occupied blocks per task id
system.cpu.dcache.tags.age_task_id_blocks_1024::1          743                       # Occupied blocks per task id
system.cpu.dcache.tags.age_task_id_blocks_1024::4            1                       # Occupied blocks per task id
system.cpu.dcache.tags.occ_task_id_percent::1024            1                       # Percentage of cache occupancy per task id
system.cpu.dcache.tags.tag_accesses          37678370                       # Number of tag accesses
system.cpu.dcache.tags.data_accesses         37678370                       # Number of data accesses

---------- End Simulation Statistics   ----------
