
---------- Begin Simulation Statistics ----------
final_tick                               92848420857500                       # Number of ticks from beginning of simulation (restored from checkpoints and never reset)
host_inst_rate                                  12373                       # Simulator instruction rate (inst/s)
host_mem_usage                                 827024                       # Number of bytes of host memory used
host_op_rate                                    20049                       # Simulator op (including micro ops) rate (op/s)
host_seconds                                   808.24                       # Real time elapsed on the host
host_tick_rate                               83298605                       # Simulator tick rate (ticks/s)
sim_freq                                 1000000000000                       # Frequency of simulated ticks
sim_insts                                    10000010                       # Number of instructions simulated
sim_ops                                      16204568                       # Number of ops (including micro ops) simulated
sim_seconds                                  0.067325                       # Number of seconds simulated
sim_ticks                                 67325431250                       # Number of ticks simulated
system.cpu.Branches                                 3                       # Number of branches fetched
system.cpu.committedInsts                          10                       # Number of instructions committed
system.cpu.committedOps                            18                       # Number of ops (including micro ops) committed
system.cpu.dtb.rdAccesses                           4                       # TLB accesses on read requests
system.cpu.dtb.rdMisses                             0                       # TLB misses on read requests
system.cpu.dtb.wrAccesses                           0                       # TLB accesses on write requests
system.cpu.dtb.wrMisses                             0                       # TLB misses on write requests
system.cpu.idle_fraction                            0                       # Percentage of idle cycles
system.cpu.itb.rdAccesses                           0                       # TLB accesses on read requests
system.cpu.itb.rdMisses                             0                       # TLB misses on read requests
system.cpu.itb.wrAccesses                          13                       # TLB accesses on write requests
system.cpu.itb.wrMisses                             0                       # TLB misses on write requests
system.cpu.not_idle_fraction                        1                       # Percentage of non-idle cycles
system.cpu.numCycles                               21                       # number of cpu cycles simulated
system.cpu.numWorkItemsCompleted                    0                       # number of work items this cpu completed
system.cpu.numWorkItemsStarted                      0                       # number of work items this cpu started
system.cpu.num_busy_cycles                         21                       # Number of busy cycles
system.cpu.num_cc_register_reads                   16                       # number of times the CC registers were read
system.cpu.num_cc_register_writes                   8                       # number of times the CC registers were written
system.cpu.num_conditional_control_insts            3                       # number of instructions that are conditional controls
system.cpu.num_fp_alu_accesses                      0                       # Number of float alu accesses
system.cpu.num_fp_insts                             0                       # number of float instructions
system.cpu.num_fp_register_reads                    0                       # number of times the floating registers were read
system.cpu.num_fp_register_writes                   0                       # number of times the floating registers were written
system.cpu.num_func_calls                           0                       # number of times a function call or return occured
system.cpu.num_idle_cycles                          0                       # Number of idle cycles
system.cpu.num_int_alu_accesses                    18                       # Number of integer alu accesses
system.cpu.num_int_insts                           18                       # number of integer instructions
system.cpu.num_int_register_reads                  33                       # number of times the integer registers were read
system.cpu.num_int_register_writes                 15                       # number of times the integer registers were written
system.cpu.num_load_insts                           4                       # Number of load instructions
system.cpu.num_mem_refs                             4                       # number of memory refs
system.cpu.num_store_insts                          0                       # Number of store instructions
system.cpu.num_vec_alu_accesses                     0                       # Number of vector alu accesses
system.cpu.num_vec_insts                            0                       # number of vector instructions
system.cpu.num_vec_register_reads                   0                       # number of times the vector registers were read
system.cpu.num_vec_register_writes                  0                       # number of times the vector registers were written
system.cpu.op_class::No_OpClass                     0      0.00%      0.00% # Class of executed instruction
system.cpu.op_class::IntAlu                        14     77.78%     77.78% # Class of executed instruction
system.cpu.op_class::IntMult                        0      0.00%     77.78% # Class of executed instruction
system.cpu.op_class::IntDiv                         0      0.00%     77.78% # Class of executed instruction
system.cpu.op_class::FloatAdd                       0      0.00%     77.78% # Class of executed instruction
system.cpu.op_class::FloatCmp                       0      0.00%     77.78% # Class of executed instruction
system.cpu.op_class::FloatCvt                       0      0.00%     77.78% # Class of executed instruction
system.cpu.op_class::FloatMult                      0      0.00%     77.78% # Class of executed instruction
system.cpu.op_class::FloatMultAcc                   0      0.00%     77.78% # Class of executed instruction
system.cpu.op_class::FloatDiv                       0      0.00%     77.78% # Class of executed instruction
system.cpu.op_class::FloatMisc                      0      0.00%     77.78% # Class of executed instruction
system.cpu.op_class::FloatSqrt                      0      0.00%     77.78% # Class of executed instruction
system.cpu.op_class::SimdAdd                        0      0.00%     77.78% # Class of executed instruction
system.cpu.op_class::SimdAddAcc                     0      0.00%     77.78% # Class of executed instruction
system.cpu.op_class::SimdAlu                        0      0.00%     77.78% # Class of executed instruction
system.cpu.op_class::SimdCmp                        0      0.00%     77.78% # Class of executed instruction
system.cpu.op_class::SimdCvt                        0      0.00%     77.78% # Class of executed instruction
system.cpu.op_class::SimdMisc                       0      0.00%     77.78% # Class of executed instruction
system.cpu.op_class::SimdMult                       0      0.00%     77.78% # Class of executed instruction
system.cpu.op_class::SimdMultAcc                    0      0.00%     77.78% # Class of executed instruction
system.cpu.op_class::SimdShift                      0      0.00%     77.78% # Class of executed instruction
system.cpu.op_class::SimdShiftAcc                   0      0.00%     77.78% # Class of executed instruction
system.cpu.op_class::SimdDiv                        0      0.00%     77.78% # Class of executed instruction
system.cpu.op_class::SimdSqrt                       0      0.00%     77.78% # Class of executed instruction
system.cpu.op_class::SimdFloatAdd                   0      0.00%     77.78% # Class of executed instruction
system.cpu.op_class::SimdFloatAlu                   0      0.00%     77.78% # Class of executed instruction
system.cpu.op_class::SimdFloatCmp                   0      0.00%     77.78% # Class of executed instruction
system.cpu.op_class::SimdFloatCvt                   0      0.00%     77.78% # Class of executed instruction
system.cpu.op_class::SimdFloatDiv                   0      0.00%     77.78% # Class of executed instruction
system.cpu.op_class::SimdFloatMisc                  0      0.00%     77.78% # Class of executed instruction
system.cpu.op_class::SimdFloatMult                  0      0.00%     77.78% # Class of executed instruction
system.cpu.op_class::SimdFloatMultAcc               0      0.00%     77.78% # Class of executed instruction
system.cpu.op_class::SimdFloatSqrt                  0      0.00%     77.78% # Class of executed instruction
system.cpu.op_class::SimdReduceAdd                  0      0.00%     77.78% # Class of executed instruction
system.cpu.op_class::SimdReduceAlu                  0      0.00%     77.78% # Class of executed instruction
system.cpu.op_class::SimdReduceCmp                  0      0.00%     77.78% # Class of executed instruction
system.cpu.op_class::SimdFloatReduceAdd             0      0.00%     77.78% # Class of executed instruction
system.cpu.op_class::SimdFloatReduceCmp             0      0.00%     77.78% # Class of executed instruction
system.cpu.op_class::SimdAes                        0      0.00%     77.78% # Class of executed instruction
system.cpu.op_class::SimdAesMix                     0      0.00%     77.78% # Class of executed instruction
system.cpu.op_class::SimdSha1Hash                   0      0.00%     77.78% # Class of executed instruction
system.cpu.op_class::SimdSha1Hash2                  0      0.00%     77.78% # Class of executed instruction
system.cpu.op_class::SimdSha256Hash                 0      0.00%     77.78% # Class of executed instruction
system.cpu.op_class::SimdSha256Hash2                0      0.00%     77.78% # Class of executed instruction
system.cpu.op_class::SimdShaSigma2                  0      0.00%     77.78% # Class of executed instruction
system.cpu.op_class::SimdShaSigma3                  0      0.00%     77.78% # Class of executed instruction
system.cpu.op_class::SimdPredAlu                    0      0.00%     77.78% # Class of executed instruction
system.cpu.op_class::MemRead                        4     22.22%    100.00% # Class of executed instruction
system.cpu.op_class::MemWrite                       0      0.00%    100.00% # Class of executed instruction
system.cpu.op_class::FloatMemRead                   0      0.00%    100.00% # Class of executed instruction
system.cpu.op_class::FloatMemWrite                  0      0.00%    100.00% # Class of executed instruction
system.cpu.op_class::IprAccess                      0      0.00%    100.00% # Class of executed instruction
system.cpu.op_class::InstPrefetch                   0      0.00%    100.00% # Class of executed instruction
system.cpu.op_class::total                         18                       # Class of executed instruction
system.cpu.workload.numSyscalls                     0                       # Number of system calls
system.membus.snoop_filter.hit_multi_requests            0                       # Number of requests hitting in the snoop filter with multiple (>1) holders of the requested data.
system.membus.snoop_filter.hit_multi_snoops            0                       # Number of snoops hitting in the snoop filter with multiple (>1) holders of the requested data.
system.membus.snoop_filter.hit_single_requests      1760104                       # Number of requests hitting in the snoop filter with a single holder of the requested data.
system.membus.snoop_filter.hit_single_snoops            0                       # Number of snoops hitting in the snoop filter with a single holder of the requested data.
system.membus.snoop_filter.tot_requests       3522481                       # Total number of requests made to the snoop filter.
system.membus.snoop_filter.tot_snoops               0                       # Total number of snoops made to the snoop filter.
system.switch_cpus.branchPred.BTBCorrect            0                       # Number of correct BTB predictions (this stat may not work properly.
system.switch_cpus.branchPred.BTBHitPct      0.000000                       # BTB Hit Percentage
system.switch_cpus.branchPred.BTBHits               0                       # Number of BTB hits
system.switch_cpus.branchPred.BTBLookups      2002352                       # Number of BTB lookups
system.switch_cpus.branchPred.RASInCorrect            1                       # Number of incorrect RAS predictions.
system.switch_cpus.branchPred.condIncorrect       173462                       # Number of conditional branches incorrect
system.switch_cpus.branchPred.condPredicted      4376290                       # Number of conditional branches predicted
system.switch_cpus.branchPred.indirectHits      1619836                       # Number of indirect target hits.
system.switch_cpus.branchPred.indirectLookups      2002352                       # Number of indirect predictor lookups.
system.switch_cpus.branchPred.indirectMisses       382516                       # Number of indirect misses.
system.switch_cpus.branchPred.lookups         4385246                       # Number of BP lookups
system.switch_cpus.branchPred.usedRAS             226                       # Number of times the RAS was used to get a target.
system.switch_cpus.branchPredindirectMispredicted        27205                       # Number of mispredicted indirect branches.
system.switch_cpus.cc_regfile_reads          12832990                       # number of cc regfile reads
system.switch_cpus.cc_regfile_writes          9372664                       # number of cc regfile writes
system.switch_cpus.commit.amos                      0                       # Number of atomic instructions committed
system.switch_cpus.commit.branchMispredicts       173462                       # The number of times a branch was mispredicted
system.switch_cpus.commit.branches            1904056                       # Number of branches committed
system.switch_cpus.commit.bw_lim_events        544100                       # number cycles where commit BW limit reached
system.switch_cpus.commit.commitSquashedInsts     15505873                       # The number of squashed insts skipped by commit
system.switch_cpus.commit.committedInsts     10000000                       # Number of instructions committed
system.switch_cpus.commit.committedOps       16204550                       # Number of ops (including micro ops) committed
system.switch_cpus.commit.committed_per_cycle::samples    132542708                       # Number of insts commited each cycle
system.switch_cpus.commit.committed_per_cycle::mean     0.122259                       # Number of insts commited each cycle
system.switch_cpus.commit.committed_per_cycle::stdev     0.709320                       # Number of insts commited each cycle
system.switch_cpus.commit.committed_per_cycle::underflows            0      0.00%      0.00% # Number of insts commited each cycle
system.switch_cpus.commit.committed_per_cycle::0    126089529     95.13%     95.13% # Number of insts commited each cycle
system.switch_cpus.commit.committed_per_cycle::1      2943967      2.22%     97.35% # Number of insts commited each cycle
system.switch_cpus.commit.committed_per_cycle::2      1291215      0.97%     98.33% # Number of insts commited each cycle
system.switch_cpus.commit.committed_per_cycle::3       865943      0.65%     98.98% # Number of insts commited each cycle
system.switch_cpus.commit.committed_per_cycle::4       537722      0.41%     99.39% # Number of insts commited each cycle
system.switch_cpus.commit.committed_per_cycle::5        96609      0.07%     99.46% # Number of insts commited each cycle
system.switch_cpus.commit.committed_per_cycle::6       121770      0.09%     99.55% # Number of insts commited each cycle
system.switch_cpus.commit.committed_per_cycle::7        51853      0.04%     99.59% # Number of insts commited each cycle
system.switch_cpus.commit.committed_per_cycle::8       544100      0.41%    100.00% # Number of insts commited each cycle
system.switch_cpus.commit.committed_per_cycle::overflows            0      0.00%    100.00% # Number of insts commited each cycle
system.switch_cpus.commit.committed_per_cycle::min_value            0                       # Number of insts commited each cycle
system.switch_cpus.commit.committed_per_cycle::max_value            8                       # Number of insts commited each cycle
system.switch_cpus.commit.committed_per_cycle::total    132542708                       # Number of insts commited each cycle
system.switch_cpus.commit.fp_insts                  0                       # Number of committed floating point instructions.
system.switch_cpus.commit.function_calls            0                       # Number of function calls committed.
system.switch_cpus.commit.int_insts          16204186                       # Number of committed integer instructions.
system.switch_cpus.commit.loads               3567032                       # Number of loads committed
system.switch_cpus.commit.membars                   0                       # Number of memory barriers committed
system.switch_cpus.commit.op_class_0::No_OpClass            0      0.00%      0.00% # Class of committed instruction
system.switch_cpus.commit.op_class_0::IntAlu     11575705     71.43%     71.43% # Class of committed instruction
system.switch_cpus.commit.op_class_0::IntMult            0      0.00%     71.43% # Class of committed instruction
system.switch_cpus.commit.op_class_0::IntDiv            0      0.00%     71.43% # Class of committed instruction
system.switch_cpus.commit.op_class_0::FloatAdd            0      0.00%     71.43% # Class of committed instruction
system.switch_cpus.commit.op_class_0::FloatCmp            0      0.00%     71.43% # Class of committed instruction
system.switch_cpus.commit.op_class_0::FloatCvt            0      0.00%     71.43% # Class of committed instruction
system.switch_cpus.commit.op_class_0::FloatMult            0      0.00%     71.43% # Class of committed instruction
system.switch_cpus.commit.op_class_0::FloatMultAcc            0      0.00%     71.43% # Class of committed instruction
system.switch_cpus.commit.op_class_0::FloatDiv            0      0.00%     71.43% # Class of committed instruction
system.switch_cpus.commit.op_class_0::FloatMisc            0      0.00%     71.43% # Class of committed instruction
system.switch_cpus.commit.op_class_0::FloatSqrt            0      0.00%     71.43% # Class of committed instruction
system.switch_cpus.commit.op_class_0::SimdAdd            0      0.00%     71.43% # Class of committed instruction
system.switch_cpus.commit.op_class_0::SimdAddAcc            0      0.00%     71.43% # Class of committed instruction
system.switch_cpus.commit.op_class_0::SimdAlu            0      0.00%     71.43% # Class of committed instruction
system.switch_cpus.commit.op_class_0::SimdCmp            0      0.00%     71.43% # Class of committed instruction
system.switch_cpus.commit.op_class_0::SimdCvt            0      0.00%     71.43% # Class of committed instruction
system.switch_cpus.commit.op_class_0::SimdMisc            0      0.00%     71.43% # Class of committed instruction
system.switch_cpus.commit.op_class_0::SimdMult            0      0.00%     71.43% # Class of committed instruction
system.switch_cpus.commit.op_class_0::SimdMultAcc            0      0.00%     71.43% # Class of committed instruction
system.switch_cpus.commit.op_class_0::SimdShift            0      0.00%     71.43% # Class of committed instruction
system.switch_cpus.commit.op_class_0::SimdShiftAcc            0      0.00%     71.43% # Class of committed instruction
system.switch_cpus.commit.op_class_0::SimdDiv            0      0.00%     71.43% # Class of committed instruction
system.switch_cpus.commit.op_class_0::SimdSqrt            0      0.00%     71.43% # Class of committed instruction
system.switch_cpus.commit.op_class_0::SimdFloatAdd            0      0.00%     71.43% # Class of committed instruction
system.switch_cpus.commit.op_class_0::SimdFloatAlu            0      0.00%     71.43% # Class of committed instruction
system.switch_cpus.commit.op_class_0::SimdFloatCmp            0      0.00%     71.43% # Class of committed instruction
system.switch_cpus.commit.op_class_0::SimdFloatCvt            0      0.00%     71.43% # Class of committed instruction
system.switch_cpus.commit.op_class_0::SimdFloatDiv            0      0.00%     71.43% # Class of committed instruction
system.switch_cpus.commit.op_class_0::SimdFloatMisc            0      0.00%     71.43% # Class of committed instruction
system.switch_cpus.commit.op_class_0::SimdFloatMult            0      0.00%     71.43% # Class of committed instruction
system.switch_cpus.commit.op_class_0::SimdFloatMultAcc            0      0.00%     71.43% # Class of committed instruction
system.switch_cpus.commit.op_class_0::SimdFloatSqrt            0      0.00%     71.43% # Class of committed instruction
system.switch_cpus.commit.op_class_0::SimdReduceAdd            0      0.00%     71.43% # Class of committed instruction
system.switch_cpus.commit.op_class_0::SimdReduceAlu            0      0.00%     71.43% # Class of committed instruction
system.switch_cpus.commit.op_class_0::SimdReduceCmp            0      0.00%     71.43% # Class of committed instruction
system.switch_cpus.commit.op_class_0::SimdFloatReduceAdd            0      0.00%     71.43% # Class of committed instruction
system.switch_cpus.commit.op_class_0::SimdFloatReduceCmp            0      0.00%     71.43% # Class of committed instruction
system.switch_cpus.commit.op_class_0::SimdAes            0      0.00%     71.43% # Class of committed instruction
system.switch_cpus.commit.op_class_0::SimdAesMix            0      0.00%     71.43% # Class of committed instruction
system.switch_cpus.commit.op_class_0::SimdSha1Hash            0      0.00%     71.43% # Class of committed instruction
system.switch_cpus.commit.op_class_0::SimdSha1Hash2            0      0.00%     71.43% # Class of committed instruction
system.switch_cpus.commit.op_class_0::SimdSha256Hash            0      0.00%     71.43% # Class of committed instruction
system.switch_cpus.commit.op_class_0::SimdSha256Hash2            0      0.00%     71.43% # Class of committed instruction
system.switch_cpus.commit.op_class_0::SimdShaSigma2            0      0.00%     71.43% # Class of committed instruction
system.switch_cpus.commit.op_class_0::SimdShaSigma3            0      0.00%     71.43% # Class of committed instruction
system.switch_cpus.commit.op_class_0::SimdPredAlu            0      0.00%     71.43% # Class of committed instruction
system.switch_cpus.commit.op_class_0::MemRead      3567032     22.01%     93.45% # Class of committed instruction
system.switch_cpus.commit.op_class_0::MemWrite      1061813      6.55%    100.00% # Class of committed instruction
system.switch_cpus.commit.op_class_0::FloatMemRead            0      0.00%    100.00% # Class of committed instruction
system.switch_cpus.commit.op_class_0::FloatMemWrite            0      0.00%    100.00% # Class of committed instruction
system.switch_cpus.commit.op_class_0::IprAccess            0      0.00%    100.00% # Class of committed instruction
system.switch_cpus.commit.op_class_0::InstPrefetch            0      0.00%    100.00% # Class of committed instruction
system.switch_cpus.commit.op_class_0::total     16204550                       # Class of committed instruction
system.switch_cpus.commit.refs                4628845                       # Number of memory references committed
system.switch_cpus.commit.swp_count                 0                       # Number of s/w prefetches committed
system.switch_cpus.commit.vec_insts                 0                       # Number of committed Vector instructions.
system.switch_cpus.committedInsts            10000000                       # Number of Instructions Simulated
system.switch_cpus.committedOps              16204550                       # Number of Ops (including micro ops) Simulated
system.switch_cpus.cpi                      13.465084                       # CPI: Cycles Per Instruction
system.switch_cpus.cpi_total                13.465084                       # CPI: Total CPI of All Threads
system.switch_cpus.decode.BlockedCycles     128372272                       # Number of cycles decode is blocked
system.switch_cpus.decode.DecodedInsts       33278451                       # Number of instructions handled by decode
system.switch_cpus.decode.IdleCycles          1642900                       # Number of cycles decode is idle
system.switch_cpus.decode.RunCycles           2686029                       # Number of cycles decode is running
system.switch_cpus.decode.SquashCycles         173628                       # Number of cycles decode is squashing
system.switch_cpus.decode.UnblockCycles       1774612                       # Number of cycles decode is unblocking
system.switch_cpus.dtb.rdAccesses             4690087                       # TLB accesses on read requests
system.switch_cpus.dtb.rdMisses                 44511                       # TLB misses on read requests
system.switch_cpus.dtb.wrAccesses             1598950                       # TLB accesses on write requests
system.switch_cpus.dtb.wrMisses                  1617                       # TLB misses on write requests
system.switch_cpus.fetch.Branches             4385246                       # Number of branches that fetch encountered
system.switch_cpus.fetch.CacheLines           2985656                       # Number of cache lines fetched
system.switch_cpus.fetch.Cycles             131374438                       # Number of cycles fetch has run and was not squashing or blocked
system.switch_cpus.fetch.IcacheSquashes         17918                       # Number of outstanding Icache misses that were squashed
system.switch_cpus.fetch.Insts               24051535                       # Number of instructions fetch has processed
system.switch_cpus.fetch.PendingTrapStallCycles         2035                       # Number of stall cycles due to pending traps
system.switch_cpus.fetch.SquashCycles          347256                       # Number of cycles fetch has spent squashing
system.switch_cpus.fetch.branchRate          0.032568                       # Number of branch fetches per cycle
system.switch_cpus.fetch.icacheStallCycles      3099349                       # Number of cycles fetch is stalled on an Icache miss
system.switch_cpus.fetch.predictedBranches      1620062                       # Number of branches that fetch has predicted taken
system.switch_cpus.fetch.rate                0.178621                       # Number of inst fetches per cycle
system.switch_cpus.fetch.rateDist::samples    134649450                       # Number of instructions fetched each cycle (Total)
system.switch_cpus.fetch.rateDist::mean      0.286240                       # Number of instructions fetched each cycle (Total)
system.switch_cpus.fetch.rateDist::stdev     1.375524                       # Number of instructions fetched each cycle (Total)
system.switch_cpus.fetch.rateDist::underflows            0      0.00%      0.00% # Number of instructions fetched each cycle (Total)
system.switch_cpus.fetch.rateDist::0        128325453     95.30%     95.30% # Number of instructions fetched each cycle (Total)
system.switch_cpus.fetch.rateDist::1           140631      0.10%     95.41% # Number of instructions fetched each cycle (Total)
system.switch_cpus.fetch.rateDist::2           614906      0.46%     95.86% # Number of instructions fetched each cycle (Total)
system.switch_cpus.fetch.rateDist::3           335540      0.25%     96.11% # Number of instructions fetched each cycle (Total)
system.switch_cpus.fetch.rateDist::4           500111      0.37%     96.49% # Number of instructions fetched each cycle (Total)
system.switch_cpus.fetch.rateDist::5           406280      0.30%     96.79% # Number of instructions fetched each cycle (Total)
system.switch_cpus.fetch.rateDist::6          1153777      0.86%     97.64% # Number of instructions fetched each cycle (Total)
system.switch_cpus.fetch.rateDist::7           171548      0.13%     97.77% # Number of instructions fetched each cycle (Total)
system.switch_cpus.fetch.rateDist::8          3001204      2.23%    100.00% # Number of instructions fetched each cycle (Total)
system.switch_cpus.fetch.rateDist::overflows            0      0.00%    100.00% # Number of instructions fetched each cycle (Total)
system.switch_cpus.fetch.rateDist::min_value            0                       # Number of instructions fetched each cycle (Total)
system.switch_cpus.fetch.rateDist::max_value            8                       # Number of instructions fetched each cycle (Total)
system.switch_cpus.fetch.rateDist::total    134649450                       # Number of instructions fetched each cycle (Total)
system.switch_cpus.fp_regfile_writes               56                       # number of floating regfile writes
system.switch_cpus.idleCycles                    1391                       # Total number of cycles that the CPU has spent unscheduled due to idling
system.switch_cpus.iew.branchMispredicts       186173                       # Number of branch mispredicts detected at execute
system.switch_cpus.iew.exec_branches          2332853                       # Number of branches executed
system.switch_cpus.iew.exec_nop                     0                       # number of nop insts executed
system.switch_cpus.iew.exec_rate             0.181597                       # Inst execution rate
system.switch_cpus.iew.exec_refs              6621903                       # number of memory reference insts executed
system.switch_cpus.iew.exec_stores            1598950                       # Number of stores executed
system.switch_cpus.iew.exec_swp                     0                       # number of swp insts executed
system.switch_cpus.iew.iewBlockCycles        98360056                       # Number of cycles IEW is blocking
system.switch_cpus.iew.iewDispLoadInsts       6854575                       # Number of dispatched load instructions
system.switch_cpus.iew.iewDispNonSpecInsts            0                       # Number of dispatched non-speculative instructions
system.switch_cpus.iew.iewDispSquashedInsts         5093                       # Number of squashed instructions skipped by dispatch
system.switch_cpus.iew.iewDispStoreInsts      2342746                       # Number of dispatched store instructions
system.switch_cpus.iew.iewDispatchedInsts     31702444                       # Number of instructions dispatched to IQ
system.switch_cpus.iew.iewExecLoadInsts       5022953                       # Number of load instructions executed
system.switch_cpus.iew.iewExecSquashedInsts       179221                       # Number of squashed instructions skipped in execute
system.switch_cpus.iew.iewExecutedInsts      24452201                       # Number of executed instructions
system.switch_cpus.iew.iewIQFullEvents         480850                       # Number of times the IQ has become full, causing a stall
system.switch_cpus.iew.iewIdleCycles                0                       # Number of cycles IEW is idle
system.switch_cpus.iew.iewLSQFullEvents        806161                       # Number of times the LSQ has become full, causing a stall
system.switch_cpus.iew.iewSquashCycles         173628                       # Number of cycles IEW is squashing
system.switch_cpus.iew.iewUnblockCycles       1978513                       # Number of cycles IEW is unblocking
system.switch_cpus.iew.lsq.thread0.blockedLoads            0                       # Number of blocked loads due to partial load-store forwarding
system.switch_cpus.iew.lsq.thread0.cacheBlocked       166313                       # Number of times an access to memory failed due to the cache being blocked
system.switch_cpus.iew.lsq.thread0.forwLoads        35469                       # Number of loads that had data forwarded from stores
system.switch_cpus.iew.lsq.thread0.ignoredResponses           38                       # Number of memory responses ignored because the instruction is squashed
system.switch_cpus.iew.lsq.thread0.invAddrLoads            0                       # Number of loads ignored due to an invalid address
system.switch_cpus.iew.lsq.thread0.invAddrSwpfs            0                       # Number of software prefetches ignored due to an invalid address
system.switch_cpus.iew.lsq.thread0.memOrderViolation          244                       # Number of memory ordering violations
system.switch_cpus.iew.lsq.thread0.rescheduledLoads            0                       # Number of loads that were rescheduled
system.switch_cpus.iew.lsq.thread0.squashedLoads      3287519                       # Number of loads squashed
system.switch_cpus.iew.lsq.thread0.squashedStores      1280933                       # Number of stores squashed
system.switch_cpus.iew.memOrderViolationEvents          244                       # Number of memory order violations
system.switch_cpus.iew.predictedNotTakenIncorrect        92551                       # Number of branches that were predicted not taken incorrectly
system.switch_cpus.iew.predictedTakenIncorrect        93622                       # Number of branches that were predicted taken incorrectly
system.switch_cpus.iew.wb_consumers          27817242                       # num instructions consuming a value
system.switch_cpus.iew.wb_count              23828608                       # cumulative count of insts written-back
system.switch_cpus.iew.wb_fanout             0.630127                       # average fanout of values written-back
system.switch_cpus.iew.wb_producers          17528401                       # num instructions producing a value
system.switch_cpus.iew.wb_rate               0.176966                       # insts written-back per cycle
system.switch_cpus.iew.wb_sent               23838099                       # cumulative count of insts sent to commit
system.switch_cpus.int_regfile_reads         32975307                       # number of integer regfile reads
system.switch_cpus.int_regfile_writes        19890266                       # number of integer regfile writes
system.switch_cpus.ipc                       0.074266                       # IPC: Instructions Per Cycle
system.switch_cpus.ipc_total                 0.074266                       # IPC: Total IPC of All Threads
system.switch_cpus.iq.FU_type_0::No_OpClass        15982      0.06%      0.06% # Type of FU issued
system.switch_cpus.iq.FU_type_0::IntAlu      17910823     72.72%     72.78% # Type of FU issued
system.switch_cpus.iq.FU_type_0::IntMult         2411      0.01%     72.79% # Type of FU issued
system.switch_cpus.iq.FU_type_0::IntDiv             0      0.00%     72.79% # Type of FU issued
system.switch_cpus.iq.FU_type_0::FloatAdd            0      0.00%     72.79% # Type of FU issued
system.switch_cpus.iq.FU_type_0::FloatCmp            0      0.00%     72.79% # Type of FU issued
system.switch_cpus.iq.FU_type_0::FloatCvt            0      0.00%     72.79% # Type of FU issued
system.switch_cpus.iq.FU_type_0::FloatMult            0      0.00%     72.79% # Type of FU issued
system.switch_cpus.iq.FU_type_0::FloatMultAcc            0      0.00%     72.79% # Type of FU issued
system.switch_cpus.iq.FU_type_0::FloatDiv            0      0.00%     72.79% # Type of FU issued
system.switch_cpus.iq.FU_type_0::FloatMisc            0      0.00%     72.79% # Type of FU issued
system.switch_cpus.iq.FU_type_0::FloatSqrt            0      0.00%     72.79% # Type of FU issued
system.switch_cpus.iq.FU_type_0::SimdAdd            0      0.00%     72.79% # Type of FU issued
system.switch_cpus.iq.FU_type_0::SimdAddAcc            0      0.00%     72.79% # Type of FU issued
system.switch_cpus.iq.FU_type_0::SimdAlu            0      0.00%     72.79% # Type of FU issued
system.switch_cpus.iq.FU_type_0::SimdCmp            0      0.00%     72.79% # Type of FU issued
system.switch_cpus.iq.FU_type_0::SimdCvt            0      0.00%     72.79% # Type of FU issued
system.switch_cpus.iq.FU_type_0::SimdMisc            0      0.00%     72.79% # Type of FU issued
system.switch_cpus.iq.FU_type_0::SimdMult            0      0.00%     72.79% # Type of FU issued
system.switch_cpus.iq.FU_type_0::SimdMultAcc            0      0.00%     72.79% # Type of FU issued
system.switch_cpus.iq.FU_type_0::SimdShift            0      0.00%     72.79% # Type of FU issued
system.switch_cpus.iq.FU_type_0::SimdShiftAcc            0      0.00%     72.79% # Type of FU issued
system.switch_cpus.iq.FU_type_0::SimdDiv            0      0.00%     72.79% # Type of FU issued
system.switch_cpus.iq.FU_type_0::SimdSqrt            0      0.00%     72.79% # Type of FU issued
system.switch_cpus.iq.FU_type_0::SimdFloatAdd            0      0.00%     72.79% # Type of FU issued
system.switch_cpus.iq.FU_type_0::SimdFloatAlu            0      0.00%     72.79% # Type of FU issued
system.switch_cpus.iq.FU_type_0::SimdFloatCmp            0      0.00%     72.79% # Type of FU issued
system.switch_cpus.iq.FU_type_0::SimdFloatCvt            0      0.00%     72.79% # Type of FU issued
system.switch_cpus.iq.FU_type_0::SimdFloatDiv            0      0.00%     72.79% # Type of FU issued
system.switch_cpus.iq.FU_type_0::SimdFloatMisc            0      0.00%     72.79% # Type of FU issued
system.switch_cpus.iq.FU_type_0::SimdFloatMult            0      0.00%     72.79% # Type of FU issued
system.switch_cpus.iq.FU_type_0::SimdFloatMultAcc            0      0.00%     72.79% # Type of FU issued
system.switch_cpus.iq.FU_type_0::SimdFloatSqrt            0      0.00%     72.79% # Type of FU issued
system.switch_cpus.iq.FU_type_0::SimdReduceAdd            0      0.00%     72.79% # Type of FU issued
system.switch_cpus.iq.FU_type_0::SimdReduceAlu            0      0.00%     72.79% # Type of FU issued
system.switch_cpus.iq.FU_type_0::SimdReduceCmp            0      0.00%     72.79% # Type of FU issued
system.switch_cpus.iq.FU_type_0::SimdFloatReduceAdd            0      0.00%     72.79% # Type of FU issued
system.switch_cpus.iq.FU_type_0::SimdFloatReduceCmp            0      0.00%     72.79% # Type of FU issued
system.switch_cpus.iq.FU_type_0::SimdAes            0      0.00%     72.79% # Type of FU issued
system.switch_cpus.iq.FU_type_0::SimdAesMix            0      0.00%     72.79% # Type of FU issued
system.switch_cpus.iq.FU_type_0::SimdSha1Hash            0      0.00%     72.79% # Type of FU issued
system.switch_cpus.iq.FU_type_0::SimdSha1Hash2            0      0.00%     72.79% # Type of FU issued
system.switch_cpus.iq.FU_type_0::SimdSha256Hash            0      0.00%     72.79% # Type of FU issued
system.switch_cpus.iq.FU_type_0::SimdSha256Hash2            0      0.00%     72.79% # Type of FU issued
system.switch_cpus.iq.FU_type_0::SimdShaSigma2            0      0.00%     72.79% # Type of FU issued
system.switch_cpus.iq.FU_type_0::SimdShaSigma3            0      0.00%     72.79% # Type of FU issued
system.switch_cpus.iq.FU_type_0::SimdPredAlu            0      0.00%     72.79% # Type of FU issued
system.switch_cpus.iq.FU_type_0::MemRead      5041074     20.47%     93.26% # Type of FU issued
system.switch_cpus.iq.FU_type_0::MemWrite      1661133      6.74%    100.00% # Type of FU issued
system.switch_cpus.iq.FU_type_0::FloatMemRead            0      0.00%    100.00% # Type of FU issued
system.switch_cpus.iq.FU_type_0::FloatMemWrite            0      0.00%    100.00% # Type of FU issued
system.switch_cpus.iq.FU_type_0::IprAccess            0      0.00%    100.00% # Type of FU issued
system.switch_cpus.iq.FU_type_0::InstPrefetch            0      0.00%    100.00% # Type of FU issued
system.switch_cpus.iq.FU_type_0::total       24631423                       # Type of FU issued
system.switch_cpus.iq.fp_alu_accesses               0                       # Number of floating point alu accesses
system.switch_cpus.iq.fp_inst_queue_reads            0                       # Number of floating instruction queue reads
system.switch_cpus.iq.fp_inst_queue_wakeup_accesses            0                       # Number of floating instruction queue wakeup accesses
system.switch_cpus.iq.fp_inst_queue_writes            0                       # Number of floating instruction queue writes
system.switch_cpus.iq.fu_busy_cnt              272307                       # FU busy when requested
system.switch_cpus.iq.fu_busy_rate           0.011055                       # FU busy rate (busy events/executed inst)
system.switch_cpus.iq.fu_full::No_OpClass            0      0.00%      0.00% # attempts to use FU when none available
system.switch_cpus.iq.fu_full::IntAlu           65280     23.97%     23.97% # attempts to use FU when none available
system.switch_cpus.iq.fu_full::IntMult              0      0.00%     23.97% # attempts to use FU when none available
system.switch_cpus.iq.fu_full::IntDiv               0      0.00%     23.97% # attempts to use FU when none available
system.switch_cpus.iq.fu_full::FloatAdd             0      0.00%     23.97% # attempts to use FU when none available
system.switch_cpus.iq.fu_full::FloatCmp             0      0.00%     23.97% # attempts to use FU when none available
system.switch_cpus.iq.fu_full::FloatCvt             0      0.00%     23.97% # attempts to use FU when none available
system.switch_cpus.iq.fu_full::FloatMult            0      0.00%     23.97% # attempts to use FU when none available
system.switch_cpus.iq.fu_full::FloatMultAcc            0      0.00%     23.97% # attempts to use FU when none available
system.switch_cpus.iq.fu_full::FloatDiv             0      0.00%     23.97% # attempts to use FU when none available
system.switch_cpus.iq.fu_full::FloatMisc            0      0.00%     23.97% # attempts to use FU when none available
system.switch_cpus.iq.fu_full::FloatSqrt            0      0.00%     23.97% # attempts to use FU when none available
system.switch_cpus.iq.fu_full::SimdAdd              0      0.00%     23.97% # attempts to use FU when none available
system.switch_cpus.iq.fu_full::SimdAddAcc            0      0.00%     23.97% # attempts to use FU when none available
system.switch_cpus.iq.fu_full::SimdAlu              0      0.00%     23.97% # attempts to use FU when none available
system.switch_cpus.iq.fu_full::SimdCmp              0      0.00%     23.97% # attempts to use FU when none available
system.switch_cpus.iq.fu_full::SimdCvt              0      0.00%     23.97% # attempts to use FU when none available
system.switch_cpus.iq.fu_full::SimdMisc             0      0.00%     23.97% # attempts to use FU when none available
system.switch_cpus.iq.fu_full::SimdMult             0      0.00%     23.97% # attempts to use FU when none available
system.switch_cpus.iq.fu_full::SimdMultAcc            0      0.00%     23.97% # attempts to use FU when none available
system.switch_cpus.iq.fu_full::SimdShift            0      0.00%     23.97% # attempts to use FU when none available
system.switch_cpus.iq.fu_full::SimdShiftAcc            0      0.00%     23.97% # attempts to use FU when none available
system.switch_cpus.iq.fu_full::SimdDiv              0      0.00%     23.97% # attempts to use FU when none available
system.switch_cpus.iq.fu_full::SimdSqrt             0      0.00%     23.97% # attempts to use FU when none available
system.switch_cpus.iq.fu_full::SimdFloatAdd            0      0.00%     23.97% # attempts to use FU when none available
system.switch_cpus.iq.fu_full::SimdFloatAlu            0      0.00%     23.97% # attempts to use FU when none available
system.switch_cpus.iq.fu_full::SimdFloatCmp            0      0.00%     23.97% # attempts to use FU when none available
system.switch_cpus.iq.fu_full::SimdFloatCvt            0      0.00%     23.97% # attempts to use FU when none available
system.switch_cpus.iq.fu_full::SimdFloatDiv            0      0.00%     23.97% # attempts to use FU when none available
system.switch_cpus.iq.fu_full::SimdFloatMisc            0      0.00%     23.97% # attempts to use FU when none available
system.switch_cpus.iq.fu_full::SimdFloatMult            0      0.00%     23.97% # attempts to use FU when none available
system.switch_cpus.iq.fu_full::SimdFloatMultAcc            0      0.00%     23.97% # attempts to use FU when none available
system.switch_cpus.iq.fu_full::SimdFloatSqrt            0      0.00%     23.97% # attempts to use FU when none available
system.switch_cpus.iq.fu_full::SimdReduceAdd            0      0.00%     23.97% # attempts to use FU when none available
system.switch_cpus.iq.fu_full::SimdReduceAlu            0      0.00%     23.97% # attempts to use FU when none available
system.switch_cpus.iq.fu_full::SimdReduceCmp            0      0.00%     23.97% # attempts to use FU when none available
system.switch_cpus.iq.fu_full::SimdFloatReduceAdd            0      0.00%     23.97% # attempts to use FU when none available
system.switch_cpus.iq.fu_full::SimdFloatReduceCmp            0      0.00%     23.97% # attempts to use FU when none available
system.switch_cpus.iq.fu_full::SimdAes              0      0.00%     23.97% # attempts to use FU when none available
system.switch_cpus.iq.fu_full::SimdAesMix            0      0.00%     23.97% # attempts to use FU when none available
system.switch_cpus.iq.fu_full::SimdSha1Hash            0      0.00%     23.97% # attempts to use FU when none available
system.switch_cpus.iq.fu_full::SimdSha1Hash2            0      0.00%     23.97% # attempts to use FU when none available
system.switch_cpus.iq.fu_full::SimdSha256Hash            0      0.00%     23.97% # attempts to use FU when none available
system.switch_cpus.iq.fu_full::SimdSha256Hash2            0      0.00%     23.97% # attempts to use FU when none available
system.switch_cpus.iq.fu_full::SimdShaSigma2            0      0.00%     23.97% # attempts to use FU when none available
system.switch_cpus.iq.fu_full::SimdShaSigma3            0      0.00%     23.97% # attempts to use FU when none available
system.switch_cpus.iq.fu_full::SimdPredAlu            0      0.00%     23.97% # attempts to use FU when none available
system.switch_cpus.iq.fu_full::MemRead          66821     24.54%     48.51% # attempts to use FU when none available
system.switch_cpus.iq.fu_full::MemWrite        140206     51.49%    100.00% # attempts to use FU when none available
system.switch_cpus.iq.fu_full::FloatMemRead            0      0.00%    100.00% # attempts to use FU when none available
system.switch_cpus.iq.fu_full::FloatMemWrite            0      0.00%    100.00% # attempts to use FU when none available
system.switch_cpus.iq.fu_full::IprAccess            0      0.00%    100.00% # attempts to use FU when none available
system.switch_cpus.iq.fu_full::InstPrefetch            0      0.00%    100.00% # attempts to use FU when none available
system.switch_cpus.iq.int_alu_accesses       24887748                       # Number of integer alu accesses
system.switch_cpus.iq.int_inst_queue_reads    184200829                       # Number of integer instruction queue reads
system.switch_cpus.iq.int_inst_queue_wakeup_accesses     23828608                       # Number of integer instruction queue wakeup accesses
system.switch_cpus.iq.int_inst_queue_writes     47200487                       # Number of integer instruction queue writes
system.switch_cpus.iq.iqInstsAdded           31702444                       # Number of instructions added to the IQ (excludes non-spec)
system.switch_cpus.iq.iqInstsIssued          24631423                       # Number of instructions issued
system.switch_cpus.iq.iqSquashedInstsExamined     15497809                       # Number of squashed instructions iterated over during squash; mainly for profiling
system.switch_cpus.iq.iqSquashedInstsIssued        16227                       # Number of squashed instructions issued
system.switch_cpus.iq.iqSquashedOperandsExamined     27733606                       # Number of squashed operands that are examined and possibly removed from graph
system.switch_cpus.iq.issued_per_cycle::samples    134649450                       # Number of insts issued each cycle
system.switch_cpus.iq.issued_per_cycle::mean     0.182930                       # Number of insts issued each cycle
system.switch_cpus.iq.issued_per_cycle::stdev     0.739085                       # Number of insts issued each cycle
system.switch_cpus.iq.issued_per_cycle::underflows            0      0.00%      0.00% # Number of insts issued each cycle
system.switch_cpus.iq.issued_per_cycle::0    122885122     91.26%     91.26% # Number of insts issued each cycle
system.switch_cpus.iq.issued_per_cycle::1      5854356      4.35%     95.61% # Number of insts issued each cycle
system.switch_cpus.iq.issued_per_cycle::2      2638720      1.96%     97.57% # Number of insts issued each cycle
system.switch_cpus.iq.issued_per_cycle::3      1471294      1.09%     98.66% # Number of insts issued each cycle
system.switch_cpus.iq.issued_per_cycle::4       810294      0.60%     99.27% # Number of insts issued each cycle
system.switch_cpus.iq.issued_per_cycle::5       428766      0.32%     99.58% # Number of insts issued each cycle
system.switch_cpus.iq.issued_per_cycle::6       311031      0.23%     99.81% # Number of insts issued each cycle
system.switch_cpus.iq.issued_per_cycle::7       164383      0.12%     99.94% # Number of insts issued each cycle
system.switch_cpus.iq.issued_per_cycle::8        85484      0.06%    100.00% # Number of insts issued each cycle
system.switch_cpus.iq.issued_per_cycle::overflows            0      0.00%    100.00% # Number of insts issued each cycle
system.switch_cpus.iq.issued_per_cycle::min_value            0                       # Number of insts issued each cycle
system.switch_cpus.iq.issued_per_cycle::max_value            8                       # Number of insts issued each cycle
system.switch_cpus.iq.issued_per_cycle::total    134649450                       # Number of insts issued each cycle
system.switch_cpus.iq.rate                   0.182928                       # Inst issue rate
system.switch_cpus.iq.vec_alu_accesses              0                       # Number of vector alu accesses
system.switch_cpus.iq.vec_inst_queue_reads            0                       # Number of vector instruction queue reads
system.switch_cpus.iq.vec_inst_queue_wakeup_accesses            0                       # Number of vector instruction queue wakeup accesses
system.switch_cpus.iq.vec_inst_queue_writes            0                       # Number of vector instruction queue writes
system.switch_cpus.itb.rdAccesses                   0                       # TLB accesses on read requests
system.switch_cpus.itb.rdMisses                     0                       # TLB misses on read requests
system.switch_cpus.itb.wrAccesses             2985882                       # TLB accesses on write requests
system.switch_cpus.itb.wrMisses                   228                       # TLB misses on write requests
system.switch_cpus.memDep0.conflictingLoads       430689                       # Number of conflicting loads.
system.switch_cpus.memDep0.conflictingStores       612011                       # Number of conflicting stores.
system.switch_cpus.memDep0.insertedLoads      6854575                       # Number of loads inserted to the mem dependence unit.
system.switch_cpus.memDep0.insertedStores      2342746                       # Number of stores inserted to the mem dependence unit.
system.switch_cpus.misc_regfile_reads        12546727                       # number of misc regfile reads
system.switch_cpus.misc_regfile_writes              1                       # number of misc regfile writes
system.switch_cpus.numCycles                134650841                       # number of cpu cycles simulated
system.switch_cpus.numWorkItemsCompleted            0                       # number of work items this cpu completed
system.switch_cpus.numWorkItemsStarted              0                       # number of work items this cpu started
system.switch_cpus.rename.BlockCycles       120105693                       # Number of cycles rename is blocking
system.switch_cpus.rename.CommittedMaps      20622243                       # Number of HB maps that are committed
system.switch_cpus.rename.IQFullEvents        6186311                       # Number of times rename has blocked due to IQ full
system.switch_cpus.rename.IdleCycles          2111125                       # Number of cycles rename is idle
system.switch_cpus.rename.LQFullEvents         444205                       # Number of times rename has blocked due to LQ full
system.switch_cpus.rename.ROBFullEvents        128959                       # Number of times rename has blocked due to ROB full
system.switch_cpus.rename.RenameLookups      86284115                       # Number of register rename lookups that rename has made
system.switch_cpus.rename.RenamedInsts       32450349                       # Number of instructions processed by rename
system.switch_cpus.rename.RenamedOperands     40965127                       # Number of destination operands rename has renamed
system.switch_cpus.rename.RunCycles           3566757                       # Number of cycles rename is running
system.switch_cpus.rename.SQFullEvents        2059268                       # Number of times rename has blocked due to SQ full
system.switch_cpus.rename.SquashCycles         173628                       # Number of cycles rename is squashing
system.switch_cpus.rename.UnblockCycles       8692238                       # Number of cycles rename is unblocking
system.switch_cpus.rename.UndoneMaps         20342770                       # Number of HB maps that are undone due to squashing
system.switch_cpus.rename.int_rename_lookups     49157580                       # Number of integer rename lookups
system.switch_cpus.rename.serializeStallCycles            0                       # count of cycles rename stalled for serializing inst
system.switch_cpus.rename.serializingInsts            0                       # count of serializing insts renamed
system.switch_cpus.rename.skidInsts          11329346                       # count of insts added to the skid buffer
system.switch_cpus.rename.tempSerializingInsts            0                       # count of temporary serializing insts renamed
system.switch_cpus.rob.rob_reads            163709031                       # The number of ROB reads
system.switch_cpus.rob.rob_writes            65531066                       # The number of ROB writes
system.switch_cpus.timesIdled                      24                       # Number of times that the entire CPU went into an idle state and unscheduled itself
system.tol2bus.snoop_filter.hit_multi_requests            0                       # Number of requests hitting in the snoop filter with multiple (>1) holders of the requested data.
system.tol2bus.snoop_filter.hit_multi_snoops            0                       # Number of snoops hitting in the snoop filter with multiple (>1) holders of the requested data.
system.tol2bus.snoop_filter.hit_single_requests      2091287                       # Number of requests hitting in the snoop filter with a single holder of the requested data.
system.tol2bus.snoop_filter.hit_single_snoops      1228128                       # Number of snoops hitting in the snoop filter with a single holder of the requested data.
system.tol2bus.snoop_filter.tot_requests      4183617                       # Total number of requests made to the snoop filter.
system.tol2bus.snoop_filter.tot_snoops        1228128                       # Total number of snoops made to the snoop filter.
system.membus.pwrStateResidencyTicks::UNDEFINED 92848420857500                       # Cumulative time (in ticks) in various power states
system.membus.trans_dist::ReadResp            1683120                       # Transaction distribution
system.membus.trans_dist::WritebackDirty       137972                       # Transaction distribution
system.membus.trans_dist::CleanEvict          1622132                       # Transaction distribution
system.membus.trans_dist::ReadExReq             79256                       # Transaction distribution
system.membus.trans_dist::ReadExResp            79256                       # Transaction distribution
system.membus.trans_dist::ReadSharedReq       1683121                       # Transaction distribution
system.membus.pkt_count_system.l2.mem_side::system.mem_ctrls.port      5284857                       # Packet count per connected master and slave (bytes)
system.membus.pkt_count_system.l2.mem_side::total      5284857                       # Packet count per connected master and slave (bytes)
system.membus.pkt_count::total                5284857                       # Packet count per connected master and slave (bytes)
system.membus.pkt_size_system.l2.mem_side::system.mem_ctrls.port    121622272                       # Cumulative packet size per connected master and slave (bytes)
system.membus.pkt_size_system.l2.mem_side::total    121622272                       # Cumulative packet size per connected master and slave (bytes)
system.membus.pkt_size::total               121622272                       # Cumulative packet size per connected master and slave (bytes)
system.membus.snoops                                0                       # Total snoops (count)
system.membus.snoopTraffic                          0                       # Total snoop traffic (bytes)
system.membus.snoop_fanout::samples           1762377                       # Request fanout histogram
system.membus.snoop_fanout::mean                    0                       # Request fanout histogram
system.membus.snoop_fanout::stdev                   0                       # Request fanout histogram
system.membus.snoop_fanout::underflows              0      0.00%      0.00% # Request fanout histogram
system.membus.snoop_fanout::0                 1762377    100.00%    100.00% # Request fanout histogram
system.membus.snoop_fanout::1                       0      0.00%    100.00% # Request fanout histogram
system.membus.snoop_fanout::overflows               0      0.00%    100.00% # Request fanout histogram
system.membus.snoop_fanout::min_value               0                       # Request fanout histogram
system.membus.snoop_fanout::max_value               0                       # Request fanout histogram
system.membus.snoop_fanout::total             1762377                       # Request fanout histogram
system.membus.reqLayer2.occupancy          4509046500                       # Layer occupancy (ticks)
system.membus.reqLayer2.utilization               6.7                       # Layer utilization (%)
system.membus.respLayer1.occupancy         9192602000                       # Layer occupancy (ticks)
system.membus.respLayer1.utilization             13.7                       # Layer utilization (%)
system.switch_cpus.pwrStateResidencyTicks::OFF  67325431250                       # Cumulative time (in ticks) in various power states
system.switch_cpus.dtb.walker.pwrStateResidencyTicks::UNDEFINED 92848420857500                       # Cumulative time (in ticks) in various power states
system.switch_cpus.itb.walker.pwrStateResidencyTicks::UNDEFINED 92848420857500                       # Cumulative time (in ticks) in various power states
system.tol2bus.pwrStateResidencyTicks::UNDEFINED 92848420857500                       # Cumulative time (in ticks) in various power states
system.tol2bus.trans_dist::ReadResp           2012611                       # Transaction distribution
system.tol2bus.trans_dist::WritebackDirty       278814                       # Transaction distribution
system.tol2bus.trans_dist::CleanEvict         3672897                       # Transaction distribution
system.tol2bus.trans_dist::ReadExReq            79718                       # Transaction distribution
system.tol2bus.trans_dist::ReadExResp           79718                       # Transaction distribution
system.tol2bus.trans_dist::ReadCleanReq            18                       # Transaction distribution
system.tol2bus.trans_dist::ReadSharedReq      2012594                       # Transaction distribution
system.tol2bus.pkt_count_system.cpu.icache.mem_side::system.l2.cpu_side           36                       # Packet count per connected master and slave (bytes)
system.tol2bus.pkt_count_system.cpu.dcache.mem_side::system.l2.cpu_side      6275910                       # Packet count per connected master and slave (bytes)
system.tol2bus.pkt_count::total               6275946                       # Packet count per connected master and slave (bytes)
system.tol2bus.pkt_size_system.cpu.icache.mem_side::system.l2.cpu_side         1152                       # Cumulative packet size per connected master and slave (bytes)
system.tol2bus.pkt_size_system.cpu.dcache.mem_side::system.l2.cpu_side    142921792                       # Cumulative packet size per connected master and slave (bytes)
system.tol2bus.pkt_size::total              142922944                       # Cumulative packet size per connected master and slave (bytes)
system.tol2bus.snoops                         1860424                       # Total snoops (count)
system.tol2bus.snoopTraffic                   8830208                       # Total snoop traffic (bytes)
system.tol2bus.snoop_fanout::samples          3952754                       # Request fanout histogram
system.tol2bus.snoop_fanout::mean            0.310702                       # Request fanout histogram
system.tol2bus.snoop_fanout::stdev           0.462781                       # Request fanout histogram
system.tol2bus.snoop_fanout::underflows             0      0.00%      0.00% # Request fanout histogram
system.tol2bus.snoop_fanout::0                2724626     68.93%     68.93% # Request fanout histogram
system.tol2bus.snoop_fanout::1                1228128     31.07%    100.00% # Request fanout histogram
system.tol2bus.snoop_fanout::2                      0      0.00%    100.00% # Request fanout histogram
system.tol2bus.snoop_fanout::3                      0      0.00%    100.00% # Request fanout histogram
system.tol2bus.snoop_fanout::4                      0      0.00%    100.00% # Request fanout histogram
system.tol2bus.snoop_fanout::overflows              0      0.00%    100.00% # Request fanout histogram
system.tol2bus.snoop_fanout::min_value              0                       # Request fanout histogram
system.tol2bus.snoop_fanout::max_value              1                       # Request fanout histogram
system.tol2bus.snoop_fanout::total            3952754                       # Request fanout histogram
system.tol2bus.reqLayer0.occupancy         2232648500                       # Layer occupancy (ticks)
system.tol2bus.reqLayer0.utilization              3.3                       # Layer utilization (%)
system.tol2bus.respLayer1.occupancy        3138462000                       # Layer occupancy (ticks)
system.tol2bus.respLayer1.utilization             4.7                       # Layer utilization (%)
system.tol2bus.respLayer0.occupancy             25500                       # Layer occupancy (ticks)
system.tol2bus.respLayer0.utilization             0.0                       # Layer utilization (%)
system.voltage_domain.voltage                       1                       # Voltage in Volts
system.clk_domain.clock                          1000                       # Clock period in ticks
system.l2.pwrStateResidencyTicks::UNDEFINED 92848420857500                       # Cumulative time (in ticks) in various power states
system.l2.demand_hits::.switch_cpus.data       329953                       # number of demand (read+write) hits
system.l2.demand_hits::total                   329953                       # number of demand (read+write) hits
system.l2.overall_hits::.switch_cpus.data       329953                       # number of overall hits
system.l2.overall_hits::total                  329953                       # number of overall hits
system.l2.demand_misses::.cpu.inst                  1                       # number of demand (read+write) misses
system.l2.demand_misses::.cpu.data                  3                       # number of demand (read+write) misses
system.l2.demand_misses::.switch_cpus.inst           17                       # number of demand (read+write) misses
system.l2.demand_misses::.switch_cpus.data      1762356                       # number of demand (read+write) misses
system.l2.demand_misses::total                1762377                       # number of demand (read+write) misses
system.l2.overall_misses::.cpu.inst                 1                       # number of overall misses
system.l2.overall_misses::.cpu.data                 3                       # number of overall misses
system.l2.overall_misses::.switch_cpus.inst           17                       # number of overall misses
system.l2.overall_misses::.switch_cpus.data      1762356                       # number of overall misses
system.l2.overall_misses::total               1762377                       # number of overall misses
system.l2.demand_miss_latency::.switch_cpus.inst      1543000                       # number of demand (read+write) miss cycles
system.l2.demand_miss_latency::.switch_cpus.data 142716112000                       # number of demand (read+write) miss cycles
system.l2.demand_miss_latency::total     142717655000                       # number of demand (read+write) miss cycles
system.l2.overall_miss_latency::.switch_cpus.inst      1543000                       # number of overall miss cycles
system.l2.overall_miss_latency::.switch_cpus.data 142716112000                       # number of overall miss cycles
system.l2.overall_miss_latency::total    142717655000                       # number of overall miss cycles
system.l2.demand_accesses::.cpu.inst                1                       # number of demand (read+write) accesses
system.l2.demand_accesses::.cpu.data                3                       # number of demand (read+write) accesses
system.l2.demand_accesses::.switch_cpus.inst           17                       # number of demand (read+write) accesses
system.l2.demand_accesses::.switch_cpus.data      2092309                       # number of demand (read+write) accesses
system.l2.demand_accesses::total              2092330                       # number of demand (read+write) accesses
system.l2.overall_accesses::.cpu.inst               1                       # number of overall (read+write) accesses
system.l2.overall_accesses::.cpu.data               3                       # number of overall (read+write) accesses
system.l2.overall_accesses::.switch_cpus.inst           17                       # number of overall (read+write) accesses
system.l2.overall_accesses::.switch_cpus.data      2092309                       # number of overall (read+write) accesses
system.l2.overall_accesses::total             2092330                       # number of overall (read+write) accesses
system.l2.demand_miss_rate::.cpu.inst               1                       # miss rate for demand accesses
system.l2.demand_miss_rate::.cpu.data               1                       # miss rate for demand accesses
system.l2.demand_miss_rate::.switch_cpus.inst            1                       # miss rate for demand accesses
system.l2.demand_miss_rate::.switch_cpus.data     0.842302                       # miss rate for demand accesses
system.l2.demand_miss_rate::total            0.842304                       # miss rate for demand accesses
system.l2.overall_miss_rate::.cpu.inst              1                       # miss rate for overall accesses
system.l2.overall_miss_rate::.cpu.data              1                       # miss rate for overall accesses
system.l2.overall_miss_rate::.switch_cpus.inst            1                       # miss rate for overall accesses
system.l2.overall_miss_rate::.switch_cpus.data     0.842302                       # miss rate for overall accesses
system.l2.overall_miss_rate::total           0.842304                       # miss rate for overall accesses
system.l2.demand_avg_miss_latency::.switch_cpus.inst 90764.705882                       # average overall miss latency
system.l2.demand_avg_miss_latency::.switch_cpus.data 80980.296830                       # average overall miss latency
system.l2.demand_avg_miss_latency::total 80980.207413                       # average overall miss latency
system.l2.overall_avg_miss_latency::.switch_cpus.inst 90764.705882                       # average overall miss latency
system.l2.overall_avg_miss_latency::.switch_cpus.data 80980.296830                       # average overall miss latency
system.l2.overall_avg_miss_latency::total 80980.207413                       # average overall miss latency
system.l2.blocked_cycles::no_mshrs                  0                       # number of cycles access was blocked
system.l2.blocked_cycles::no_targets                0                       # number of cycles access was blocked
system.l2.blocked::no_mshrs                         0                       # number of cycles access was blocked
system.l2.blocked::no_targets                       0                       # number of cycles access was blocked
system.l2.avg_blocked_cycles::no_mshrs            nan                       # average number of cycles each access was blocked
system.l2.avg_blocked_cycles::no_targets          nan                       # average number of cycles each access was blocked
system.l2.writebacks::.writebacks              137972                       # number of writebacks
system.l2.writebacks::total                    137972                       # number of writebacks
system.l2.demand_mshr_misses::.switch_cpus.inst           17                       # number of demand (read+write) MSHR misses
system.l2.demand_mshr_misses::.switch_cpus.data      1762356                       # number of demand (read+write) MSHR misses
system.l2.demand_mshr_misses::total           1762373                       # number of demand (read+write) MSHR misses
system.l2.overall_mshr_misses::.switch_cpus.inst           17                       # number of overall MSHR misses
system.l2.overall_mshr_misses::.switch_cpus.data      1762356                       # number of overall MSHR misses
system.l2.overall_mshr_misses::total          1762373                       # number of overall MSHR misses
system.l2.demand_mshr_miss_latency::.switch_cpus.inst      1373000                       # number of demand (read+write) MSHR miss cycles
system.l2.demand_mshr_miss_latency::.switch_cpus.data 125092562000                       # number of demand (read+write) MSHR miss cycles
system.l2.demand_mshr_miss_latency::total 125093935000                       # number of demand (read+write) MSHR miss cycles
system.l2.overall_mshr_miss_latency::.switch_cpus.inst      1373000                       # number of overall MSHR miss cycles
system.l2.overall_mshr_miss_latency::.switch_cpus.data 125092562000                       # number of overall MSHR miss cycles
system.l2.overall_mshr_miss_latency::total 125093935000                       # number of overall MSHR miss cycles
system.l2.demand_mshr_miss_rate::.switch_cpus.inst            1                       # mshr miss rate for demand accesses
system.l2.demand_mshr_miss_rate::.switch_cpus.data     0.842302                       # mshr miss rate for demand accesses
system.l2.demand_mshr_miss_rate::total       0.842302                       # mshr miss rate for demand accesses
system.l2.overall_mshr_miss_rate::.switch_cpus.inst            1                       # mshr miss rate for overall accesses
system.l2.overall_mshr_miss_rate::.switch_cpus.data     0.842302                       # mshr miss rate for overall accesses
system.l2.overall_mshr_miss_rate::total      0.842302                       # mshr miss rate for overall accesses
system.l2.demand_avg_mshr_miss_latency::.switch_cpus.inst 80764.705882                       # average overall mshr miss latency
system.l2.demand_avg_mshr_miss_latency::.switch_cpus.data 70980.302504                       # average overall mshr miss latency
system.l2.demand_avg_mshr_miss_latency::total 70980.396885                       # average overall mshr miss latency
system.l2.overall_avg_mshr_miss_latency::.switch_cpus.inst 80764.705882                       # average overall mshr miss latency
system.l2.overall_avg_mshr_miss_latency::.switch_cpus.data 70980.302504                       # average overall mshr miss latency
system.l2.overall_avg_mshr_miss_latency::total 70980.396885                       # average overall mshr miss latency
system.l2.replacements                        1860424                       # number of replacements
system.l2.WritebackDirty_hits::.writebacks       140842                       # number of WritebackDirty hits
system.l2.WritebackDirty_hits::total           140842                       # number of WritebackDirty hits
system.l2.WritebackDirty_accesses::.writebacks       140842                       # number of WritebackDirty accesses(hits+misses)
system.l2.WritebackDirty_accesses::total       140842                       # number of WritebackDirty accesses(hits+misses)
system.l2.CleanEvict_mshr_misses::.writebacks      1127809                       # number of CleanEvict MSHR misses
system.l2.CleanEvict_mshr_misses::total       1127809                       # number of CleanEvict MSHR misses
system.l2.CleanEvict_mshr_miss_rate::.writebacks          inf                       # mshr miss rate for CleanEvict accesses
system.l2.CleanEvict_mshr_miss_rate::total          inf                       # mshr miss rate for CleanEvict accesses
system.l2.ReadExReq_hits::.switch_cpus.data          462                       # number of ReadExReq hits
system.l2.ReadExReq_hits::total                   462                       # number of ReadExReq hits
system.l2.ReadExReq_misses::.switch_cpus.data        79256                       # number of ReadExReq misses
system.l2.ReadExReq_misses::total               79256                       # number of ReadExReq misses
system.l2.ReadExReq_miss_latency::.switch_cpus.data   6770658500                       # number of ReadExReq miss cycles
system.l2.ReadExReq_miss_latency::total    6770658500                       # number of ReadExReq miss cycles
system.l2.ReadExReq_accesses::.switch_cpus.data        79718                       # number of ReadExReq accesses(hits+misses)
system.l2.ReadExReq_accesses::total             79718                       # number of ReadExReq accesses(hits+misses)
system.l2.ReadExReq_miss_rate::.switch_cpus.data     0.994205                       # miss rate for ReadExReq accesses
system.l2.ReadExReq_miss_rate::total         0.994205                       # miss rate for ReadExReq accesses
system.l2.ReadExReq_avg_miss_latency::.switch_cpus.data 85427.708943                       # average ReadExReq miss latency
system.l2.ReadExReq_avg_miss_latency::total 85427.708943                       # average ReadExReq miss latency
system.l2.ReadExReq_mshr_misses::.switch_cpus.data        79256                       # number of ReadExReq MSHR misses
system.l2.ReadExReq_mshr_misses::total          79256                       # number of ReadExReq MSHR misses
system.l2.ReadExReq_mshr_miss_latency::.switch_cpus.data   5978098500                       # number of ReadExReq MSHR miss cycles
system.l2.ReadExReq_mshr_miss_latency::total   5978098500                       # number of ReadExReq MSHR miss cycles
system.l2.ReadExReq_mshr_miss_rate::.switch_cpus.data     0.994205                       # mshr miss rate for ReadExReq accesses
system.l2.ReadExReq_mshr_miss_rate::total     0.994205                       # mshr miss rate for ReadExReq accesses
system.l2.ReadExReq_avg_mshr_miss_latency::.switch_cpus.data 75427.708943                       # average ReadExReq mshr miss latency
system.l2.ReadExReq_avg_mshr_miss_latency::total 75427.708943                       # average ReadExReq mshr miss latency
system.l2.ReadCleanReq_misses::.cpu.inst            1                       # number of ReadCleanReq misses
system.l2.ReadCleanReq_misses::.switch_cpus.inst           17                       # number of ReadCleanReq misses
system.l2.ReadCleanReq_misses::total               18                       # number of ReadCleanReq misses
system.l2.ReadCleanReq_miss_latency::.switch_cpus.inst      1543000                       # number of ReadCleanReq miss cycles
system.l2.ReadCleanReq_miss_latency::total      1543000                       # number of ReadCleanReq miss cycles
system.l2.ReadCleanReq_accesses::.cpu.inst            1                       # number of ReadCleanReq accesses(hits+misses)
system.l2.ReadCleanReq_accesses::.switch_cpus.inst           17                       # number of ReadCleanReq accesses(hits+misses)
system.l2.ReadCleanReq_accesses::total             18                       # number of ReadCleanReq accesses(hits+misses)
system.l2.ReadCleanReq_miss_rate::.cpu.inst            1                       # miss rate for ReadCleanReq accesses
system.l2.ReadCleanReq_miss_rate::.switch_cpus.inst            1                       # miss rate for ReadCleanReq accesses
system.l2.ReadCleanReq_miss_rate::total             1                       # miss rate for ReadCleanReq accesses
system.l2.ReadCleanReq_avg_miss_latency::.switch_cpus.inst 90764.705882                       # average ReadCleanReq miss latency
system.l2.ReadCleanReq_avg_miss_latency::total 85722.222222                       # average ReadCleanReq miss latency
system.l2.ReadCleanReq_mshr_misses::.switch_cpus.inst           17                       # number of ReadCleanReq MSHR misses
system.l2.ReadCleanReq_mshr_misses::total           17                       # number of ReadCleanReq MSHR misses
system.l2.ReadCleanReq_mshr_miss_latency::.switch_cpus.inst      1373000                       # number of ReadCleanReq MSHR miss cycles
system.l2.ReadCleanReq_mshr_miss_latency::total      1373000                       # number of ReadCleanReq MSHR miss cycles
system.l2.ReadCleanReq_mshr_miss_rate::.switch_cpus.inst            1                       # mshr miss rate for ReadCleanReq accesses
system.l2.ReadCleanReq_mshr_miss_rate::total     0.944444                       # mshr miss rate for ReadCleanReq accesses
system.l2.ReadCleanReq_avg_mshr_miss_latency::.switch_cpus.inst 80764.705882                       # average ReadCleanReq mshr miss latency
system.l2.ReadCleanReq_avg_mshr_miss_latency::total 80764.705882                       # average ReadCleanReq mshr miss latency
system.l2.ReadSharedReq_hits::.switch_cpus.data       329491                       # number of ReadSharedReq hits
system.l2.ReadSharedReq_hits::total            329491                       # number of ReadSharedReq hits
system.l2.ReadSharedReq_misses::.cpu.data            3                       # number of ReadSharedReq misses
system.l2.ReadSharedReq_misses::.switch_cpus.data      1683100                       # number of ReadSharedReq misses
[...]
system.cpu.icache.tags.data_accesses         22406351                       # Number of data accesses
system.cpu.dtb.walker.pwrStateResidencyTicks::UNDEFINED 93042591001500                       # Cumulative time (in ticks) in various power states
system.cpu.interrupts.clk_domain.clock           8000                       # Clock period in ticks
system.cpu.itb_walker_cache.pwrStateResidencyTicks::UNDEFINED 93042591001500                       # Cumulative time (in ticks) in various power states
system.cpu.itb_walker_cache.blocked_cycles::no_mshrs            0                       # number of cycles access was blocked
system.cpu.itb_walker_cache.blocked_cycles::no_targets            0                       # number of cycles access was blocked
system.cpu.itb_walker_cache.blocked::no_mshrs            0                       # number of cycles access was blocked
system.cpu.itb_walker_cache.blocked::no_targets            0                       # number of cycles access was blocked
system.cpu.itb_walker_cache.avg_blocked_cycles::no_mshrs          nan                       # average number of cycles each access was blocked
system.cpu.itb_walker_cache.avg_blocked_cycles::no_targets          nan                       # average number of cycles each access was blocked
system.cpu.itb_walker_cache.replacements            0                       # number of replacements
system.cpu.itb_walker_cache.tags.pwrStateResidencyTicks::UNDEFINED 93042591001500                       # Cumulative time (in ticks) in various power states
system.cpu.itb_walker_cache.tags.tagsinuse            0                       # Cycle average of tags in use
system.cpu.itb_walker_cache.tags.total_refs            0                       # Total number of references to valid blocks.
system.cpu.itb_walker_cache.tags.sampled_refs            0                       # Sample count of references to valid blocks.
system.cpu.itb_walker_cache.tags.avg_refs          nan                       # Average number of references to valid blocks.
system.cpu.itb_walker_cache.tags.warmup_cycle            0                       # Cycle when the warmup percentage was hit.
system.cpu.itb_walker_cache.tags.tag_accesses            0                       # Number of tag accesses
system.cpu.itb_walker_cache.tags.data_accesses            0                       # Number of data accesses
system.cpu.itb.walker.pwrStateResidencyTicks::UNDEFINED 93042591001500                       # Cumulative time (in ticks) in various power states
system.cpu.dtb_walker_cache.pwrStateResidencyTicks::UNDEFINED 93042591001500                       # Cumulative time (in ticks) in various power states
system.cpu.dtb_walker_cache.blocked_cycles::no_mshrs            0                       # number of cycles access was blocked
system.cpu.dtb_walker_cache.blocked_cycles::no_targets            0                       # number of cycles access was blocked
system.cpu.dtb_walker_cache.blocked::no_mshrs            0                       # number of cycles access was blocked
system.cpu.dtb_walker_cache.blocked::no_targets            0                       # number of cycles access was blocked
system.cpu.dtb_walker_cache.avg_blocked_cycles::no_mshrs          nan                       # average number of cycles each access was blocked
system.cpu.dtb_walker_cache.avg_blocked_cycles::no_targets          nan                       # average number of cycles each access was blocked
system.cpu.dtb_walker_cache.replacements            0                       # number of replacements
system.cpu.dtb_walker_cache.tags.pwrStateResidencyTicks::UNDEFINED 93042591001500                       # Cumulative time (in ticks) in various power states
system.cpu.dtb_walker_cache.tags.tagsinuse            0                       # Cycle average of tags in use
system.cpu.dtb_walker_cache.tags.total_refs            0                       # Total number of references to valid blocks.
system.cpu.dtb_walker_cache.tags.sampled_refs            0                       # Sample count of references to valid blocks.
system.cpu.dtb_walker_cache.tags.avg_refs          nan                       # Average number of references to valid blocks.
system.cpu.dtb_walker_cache.tags.warmup_cycle            0                       # Cycle when the warmup percentage was hit.
system.cpu.dtb_walker_cache.tags.tag_accesses            0                       # Number of tag accesses
system.cpu.dtb_walker_cache.tags.data_accesses            0                       # Number of data accesses
system.cpu.dcache.pwrStateResidencyTicks::UNDEFINED 93042591001500                       # Cumulative time (in ticks) in various power states
system.cpu.dcache.demand_hits::.cpu.data            1                       # number of demand (read+write) hits
system.cpu.dcache.demand_hits::.switch_cpus.data     13345198                       # number of demand (read+write) hits
system.cpu.dcache.demand_hits::total         13345199                       # number of demand (read+write) hits
system.cpu.dcache.overall_hits::.cpu.data            1                       # number of overall hits
system.cpu.dcache.overall_hits::.switch_cpus.data     13345198                       # number of overall hits
system.cpu.dcache.overall_hits::total        13345199                       # number of overall hits
system.cpu.dcache.demand_misses::.cpu.data            3                       # number of demand (read+write) misses
system.cpu.dcache.demand_misses::.switch_cpus.data      8872407                       # number of demand (read+write) misses
system.cpu.dcache.demand_misses::total        8872410                       # number of demand (read+write) misses
system.cpu.dcache.overall_misses::.cpu.data            3                       # number of overall misses
system.cpu.dcache.overall_misses::.switch_cpus.data      8872407                       # number of overall misses
system.cpu.dcache.overall_misses::total       8872410                       # number of overall misses
system.cpu.dcache.demand_miss_latency::.switch_cpus.data 671009141726                       # number of demand (read+write) miss cycles
system.cpu.dcache.demand_miss_latency::total 671009141726                       # number of demand (read+write) miss cycles
system.cpu.dcache.overall_miss_latency::.switch_cpus.data 671009141726                       # number of overall miss cycles
system.cpu.dcache.overall_miss_latency::total 671009141726                       # number of overall miss cycles
system.cpu.dcache.demand_accesses::.cpu.data            4                       # number of demand (read+write) accesses
system.cpu.dcache.demand_accesses::.switch_cpus.data     22217605                       # number of demand (read+write) accesses
system.cpu.dcache.demand_accesses::total     22217609                       # number of demand (read+write) accesses
system.cpu.dcache.overall_accesses::.cpu.data            4                       # number of overall (read+write) accesses
system.cpu.dcache.overall_accesses::.switch_cpus.data     22217605                       # number of overall (read+write) accesses
system.cpu.dcache.overall_accesses::total     22217609                       # number of overall (read+write) accesses
system.cpu.dcache.demand_miss_rate::.cpu.data     0.750000                       # miss rate for demand accesses
system.cpu.dcache.demand_miss_rate::.switch_cpus.data     0.399341                       # miss rate for demand accesses
system.cpu.dcache.demand_miss_rate::total     0.399341                       # miss rate for demand accesses
system.cpu.dcache.overall_miss_rate::.cpu.data     0.750000                       # miss rate for overall accesses
system.cpu.dcache.overall_miss_rate::.switch_cpus.data     0.399341                       # miss rate for overall accesses
system.cpu.dcache.overall_miss_rate::total     0.399341                       # miss rate for overall accesses
system.cpu.dcache.demand_avg_miss_latency::.switch_cpus.data 75628.760237                       # average overall miss latency
system.cpu.dcache.demand_avg_miss_latency::total 75628.734665                       # average overall miss latency
system.cpu.dcache.overall_avg_miss_latency::.switch_cpus.data 75628.760237                       # average overall miss latency
system.cpu.dcache.overall_avg_miss_latency::total 75628.734665                       # average overall miss latency
system.cpu.dcache.blocked_cycles::no_mshrs     43584634                       # number of cycles access was blocked
system.cpu.dcache.blocked_cycles::no_targets            0                       # number of cycles access was blocked
system.cpu.dcache.blocked::no_mshrs           1402355                       # number of cycles access was blocked
system.cpu.dcache.blocked::no_targets               0                       # number of cycles access was blocked
system.cpu.dcache.avg_blocked_cycles::no_mshrs    31.079601                       # average number of cycles each access was blocked
system.cpu.dcache.avg_blocked_cycles::no_targets          nan                       # average number of cycles each access was blocked
system.cpu.dcache.writebacks::.writebacks       550900                       # number of writebacks
system.cpu.dcache.writebacks::total            550900                       # number of writebacks
system.cpu.dcache.demand_mshr_hits::.switch_cpus.data      1075070                       # number of demand (read+write) MSHR hits
system.cpu.dcache.demand_mshr_hits::total      1075070                       # number of demand (read+write) MSHR hits
system.cpu.dcache.overall_mshr_hits::.switch_cpus.data      1075070                       # number of overall MSHR hits
system.cpu.dcache.overall_mshr_hits::total      1075070                       # number of overall MSHR hits
system.cpu.dcache.demand_mshr_misses::.switch_cpus.data      7797337                       # number of demand (read+write) MSHR misses
system.cpu.dcache.demand_mshr_misses::total      7797337                       # number of demand (read+write) MSHR misses
system.cpu.dcache.overall_mshr_misses::.switch_cpus.data      7797337                       # number of overall MSHR misses
system.cpu.dcache.overall_mshr_misses::total      7797337                       # number of overall MSHR misses
system.cpu.dcache.demand_mshr_miss_latency::.switch_cpus.data 599046035728                       # number of demand (read+write) MSHR miss cycles
system.cpu.dcache.demand_mshr_miss_latency::total 599046035728                       # number of demand (read+write) MSHR miss cycles
system.cpu.dcache.overall_mshr_miss_latency::.switch_cpus.data 599046035728                       # number of overall MSHR miss cycles
system.cpu.dcache.overall_mshr_miss_latency::total 599046035728                       # number of overall MSHR miss cycles
system.cpu.dcache.demand_mshr_miss_rate::.switch_cpus.data     0.350953                       # mshr miss rate for demand accesses
system.cpu.dcache.demand_mshr_miss_rate::total     0.350953                       # mshr miss rate for demand accesses
system.cpu.dcache.overall_mshr_miss_rate::.switch_cpus.data     0.350953                       # mshr miss rate for overall accesses
system.cpu.dcache.overall_mshr_miss_rate::total     0.350953                       # mshr miss rate for overall accesses
system.cpu.dcache.demand_avg_mshr_miss_latency::.switch_cpus.data 76827.003338                       # average overall mshr miss latency
system.cpu.dcache.demand_avg_mshr_miss_latency::total 76827.003338                       # average overall mshr miss latency
system.cpu.dcache.overall_avg_mshr_miss_latency::.switch_cpus.data 76827.003338                       # average overall mshr miss latency
system.cpu.dcache.overall_avg_mshr_miss_latency::total 76827.003338                       # average overall mshr miss latency
system.cpu.dcache.replacements                7796313                       # number of replacements
system.cpu.dcache.ReadReq_hits::.cpu.data            1                       # number of ReadReq hits
system.cpu.dcache.ReadReq_hits::.switch_cpus.data      9032133                       # number of ReadReq hits
system.cpu.dcache.ReadReq_hits::total         9032134                       # number of ReadReq hits
system.cpu.dcache.ReadReq_misses::.cpu.data            3                       # number of ReadReq misses
system.cpu.dcache.ReadReq_misses::.switch_cpus.data      8572694                       # number of ReadReq misses
system.cpu.dcache.ReadReq_misses::total       8572697                       # number of ReadReq misses
system.cpu.dcache.ReadReq_miss_latency::.switch_cpus.data 644613206500                       # number of ReadReq miss cycles
system.cpu.dcache.ReadReq_miss_latency::total 644613206500                       # number of ReadReq miss cycles
system.cpu.dcache.ReadReq_accesses::.cpu.data            4                       # number of ReadReq accesses(hits+misses)
system.cpu.dcache.ReadReq_accesses::.switch_cpus.data     17604827                       # number of ReadReq accesses(hits+misses)
system.cpu.dcache.ReadReq_accesses::total     17604831                       # number of ReadReq accesses(hits+misses)
system.cpu.dcache.ReadReq_miss_rate::.cpu.data     0.750000                       # miss rate for ReadReq accesses
system.cpu.dcache.ReadReq_miss_rate::.switch_cpus.data     0.486951                       # miss rate for ReadReq accesses
system.cpu.dcache.ReadReq_miss_rate::total     0.486951                       # miss rate for ReadReq accesses
system.cpu.dcache.ReadReq_avg_miss_latency::.switch_cpus.data 75193.772984                       # average ReadReq miss latency
system.cpu.dcache.ReadReq_avg_miss_latency::total 75193.746670                       # average ReadReq miss latency
system.cpu.dcache.ReadReq_mshr_hits::.switch_cpus.data      1075055                       # number of ReadReq MSHR hits
system.cpu.dcache.ReadReq_mshr_hits::total      1075055                       # number of ReadReq MSHR hits
system.cpu.dcache.ReadReq_mshr_misses::.switch_cpus.data      7497639                       # number of ReadReq MSHR misses
system.cpu.dcache.ReadReq_mshr_misses::total      7497639                       # number of ReadReq MSHR misses
system.cpu.dcache.ReadReq_mshr_miss_latency::.switch_cpus.data 572950389000                       # number of ReadReq MSHR miss cycles
system.cpu.dcache.ReadReq_mshr_miss_latency::total 572950389000                       # number of ReadReq MSHR miss cycles
system.cpu.dcache.ReadReq_mshr_miss_rate::.switch_cpus.data     0.425885                       # mshr miss rate for ReadReq accesses
system.cpu.dcache.ReadReq_mshr_miss_rate::total     0.425885                       # mshr miss rate for ReadReq accesses
system.cpu.dcache.ReadReq_avg_mshr_miss_latency::.switch_cpus.data 76417.441411                       # average ReadReq mshr miss latency
system.cpu.dcache.ReadReq_avg_mshr_miss_latency::total 76417.441411                       # average ReadReq mshr miss latency
system.cpu.dcache.WriteReq_hits::.switch_cpus.data      4313065                       # number of WriteReq hits
system.cpu.dcache.WriteReq_hits::total        4313065                       # number of WriteReq hits
system.cpu.dcache.WriteReq_misses::.switch_cpus.data       299713                       # number of WriteReq misses
system.cpu.dcache.WriteReq_misses::total       299713                       # number of WriteReq misses
system.cpu.dcache.WriteReq_miss_latency::.switch_cpus.data  26395935226                       # number of WriteReq miss cycles
system.cpu.dcache.WriteReq_miss_latency::total  26395935226                       # number of WriteReq miss cycles
system.cpu.dcache.WriteReq_accesses::.switch_cpus.data      4612778                       # number of WriteReq accesses(hits+misses)
system.cpu.dcache.WriteReq_accesses::total      4612778                       # number of WriteReq accesses(hits+misses)
system.cpu.dcache.WriteReq_miss_rate::.switch_cpus.data     0.064975                       # miss rate for WriteReq accesses
system.cpu.dcache.WriteReq_miss_rate::total     0.064975                       # miss rate for WriteReq accesses
system.cpu.dcache.WriteReq_avg_miss_latency::.switch_cpus.data 88070.705061                       # average WriteReq miss latency
system.cpu.dcache.WriteReq_avg_miss_latency::total 88070.705061                       # average WriteReq miss latency
system.cpu.dcache.WriteReq_mshr_hits::.switch_cpus.data           15                       # number of WriteReq MSHR hits
system.cpu.dcache.WriteReq_mshr_hits::total           15                       # number of WriteReq MSHR hits
system.cpu.dcache.WriteReq_mshr_misses::.switch_cpus.data       299698                       # number of WriteReq MSHR misses
system.cpu.dcache.WriteReq_mshr_misses::total       299698                       # number of WriteReq MSHR misses
system.cpu.dcache.WriteReq_mshr_miss_latency::.switch_cpus.data  26095646728                       # number of WriteReq MSHR miss cycles
system.cpu.dcache.WriteReq_mshr_miss_latency::total  26095646728                       # number of WriteReq MSHR miss cycles
system.cpu.dcache.WriteReq_mshr_miss_rate::.switch_cpus.data     0.064971                       # mshr miss rate for WriteReq accesses
system.cpu.dcache.WriteReq_mshr_miss_rate::total     0.064971                       # mshr miss rate for WriteReq accesses
system.cpu.dcache.WriteReq_avg_mshr_miss_latency::.switch_cpus.data 87073.142724                       # average WriteReq mshr miss latency
system.cpu.dcache.WriteReq_avg_mshr_miss_latency::total 87073.142724                       # average WriteReq mshr miss latency
system.cpu.dcache.tags.pwrStateResidencyTicks::UNDEFINED 93042591001500                       # Cumulative time (in ticks) in various power states
system.cpu.dcache.tags.tagsinuse             2.877688                       # Cycle average of tags in use
system.cpu.dcache.tags.total_refs            21142536                       # Total number of references to valid blocks.
system.cpu.dcache.tags.sampled_refs           7797337                       # Sample count of references to valid blocks.
system.cpu.dcache.tags.avg_refs              2.711507                       # Average number of references to valid blocks.
system.cpu.dcache.tags.warmup_cycle      92781095431500                       # Cycle when the warmup percentage was hit.
system.cpu.dcache.tags.occ_blocks::.cpu.data     0.000002                       # Average occupied blocks per requestor
system.cpu.dcache.tags.occ_blocks::.switch_cpus.data     2.877687                       # Average occupied blocks per requestor
system.cpu.dcache.tags.occ_percent::.cpu.data     0.000000                       # Average percentage of cache occupancy
system.cpu.dcache.tags.occ_percent::.switch_cpus.data     0.002810                       # Average percentage of cache occupancy
system.cpu.dcache.tags.occ_percent::total     0.002810                       # Average percentage of cache occupancy
system.cpu.dcache.tags.occ_task_id_blocks::1024         1024                       # Occupied blocks per task id
system.cpu.dcache.tags.age_task_id_blocks_1024::0          312                       # Occupied blocks per task id
system.cpu.dcache.tags.age_task_id_blocks_1024::1          710                       # Occupied blocks per task id
system.cpu.dcache.tags.age_task_id_blocks_1024::2            2                       # Occupied blocks per task id
system.cpu.dcache.tags.occ_task_id_percent::1024            1                       # Percentage of cache occupancy per task id
system.cpu.dcache.tags.tag_accesses          52232555                       # Number of tag accesses
system.cpu.dcache.tags.data_accesses         52232555                       # Number of data accesses

---------- End Simulation Statistics   ----------
