
---------- Begin Simulation Statistics ----------
final_tick                               1774440749000                       # Number of ticks from beginning of simulation (restored from checkpoints and never reset)
host_inst_rate                                  12967                       # Simulator instruction rate (inst/s)
host_mem_usage                                 886272                       # Number of bytes of host memory used
host_op_rate                                    24441                       # Simulator op (including micro ops) rate (op/s)
host_seconds                                   771.22                       # Real time elapsed on the host
host_tick_rate                               28290135                       # Simulator tick rate (ticks/s)
sim_freq                                 1000000000000                       # Frequency of simulated ticks
sim_insts                                    10000010                       # Number of instructions simulated
sim_ops                                      18849211                       # Number of ops (including micro ops) simulated
sim_seconds                                  0.021818                       # Number of seconds simulated
sim_ticks                                 21817890250                       # Number of ticks simulated
system.cpu.committedInsts                           8                       # Number of instructions committed
system.cpu.committedOps                            15                       # Number of ops (including micro ops) committed
system.cpu.dtb.rdAccesses                           3                       # TLB accesses on read requests
system.cpu.dtb.rdMisses                             0                       # TLB misses on read requests
system.cpu.dtb.wrAccesses                           0                       # TLB accesses on write requests
system.cpu.dtb.wrMisses                             0                       # TLB misses on write requests
system.cpu.idle_fraction                            0                       # Percentage of idle cycles
system.cpu.itb.rdAccesses                           0                       # TLB accesses on read requests
system.cpu.itb.rdMisses                             0                       # TLB misses on read requests
system.cpu.itb.wrAccesses                          12                       # TLB accesses on write requests
system.cpu.itb.wrMisses                             0                       # TLB misses on write requests
system.cpu.not_idle_fraction                        1                       # Percentage of non-idle cycles
system.cpu.numCycles                               19                       # number of cpu cycles simulated
system.cpu.numWorkItemsCompleted                    0                       # number of work items this cpu completed
system.cpu.numWorkItemsStarted                      0                       # number of work items this cpu started
system.cpu.num_busy_cycles                         19                       # Number of busy cycles
system.cpu.num_conditional_control_insts            0                       # number of instructions that are conditional controls
system.cpu.num_fp_alu_accesses                     11                       # Number of float alu accesses
system.cpu.num_fp_insts                            11                       # number of float instructions
system.cpu.num_fp_register_reads                   19                       # number of times the floating registers were read
system.cpu.num_fp_register_writes                  11                       # number of times the floating registers were written
system.cpu.num_func_calls                           0                       # number of times a function call or return occured
system.cpu.num_idle_cycles                          0                       # Number of idle cycles
system.cpu.num_int_alu_accesses                     7                       # Number of integer alu accesses
system.cpu.num_int_insts                            7                       # number of integer instructions
system.cpu.num_int_register_reads                  15                       # number of times the integer registers were read
system.cpu.num_int_register_writes                  4                       # number of times the integer registers were written
system.cpu.num_load_insts                           3                       # Number of load instructions
system.cpu.num_mem_refs                             3                       # number of memory refs
system.cpu.num_store_insts                          0                       # Number of store instructions
system.cpu.num_vec_alu_accesses                     0                       # Number of vector alu accesses
system.cpu.num_vec_insts                            0                       # number of vector instructions
system.cpu.num_vec_register_reads                   0                       # number of times the vector registers were read
system.cpu.num_vec_register_writes                  0                       # number of times the vector registers were written
system.cpu.op_class::No_OpClass                     0      0.00%      0.00% # Class of executed instruction
system.cpu.op_class::IntAlu                         6     40.00%     40.00% # Class of executed instruction
system.cpu.op_class::IntMult                        0      0.00%     40.00% # Class of executed instruction
system.cpu.op_class::IntDiv                         0      0.00%     40.00% # Class of executed instruction
system.cpu.op_class::FloatAdd                       1      6.67%     46.67% # Class of executed instruction
system.cpu.op_class::FloatCmp                       0      0.00%     46.67% # Class of executed instruction
system.cpu.op_class::FloatCvt                       0      0.00%     46.67% # Class of executed instruction
system.cpu.op_class::FloatMult                      0      0.00%     46.67% # Class of executed instruction
system.cpu.op_class::FloatMultAcc                   0      0.00%     46.67% # Class of executed instruction
system.cpu.op_class::FloatDiv                       0      0.00%     46.67% # Class of executed instruction
system.cpu.op_class::FloatMisc                      0      0.00%     46.67% # Class of executed instruction
system.cpu.op_class::FloatSqrt                      0      0.00%     46.67% # Class of executed instruction
system.cpu.op_class::SimdAdd                        0      0.00%     46.67% # Class of executed instruction
system.cpu.op_class::SimdAddAcc                     0      0.00%     46.67% # Class of executed instruction
system.cpu.op_class::SimdAlu                        0      0.00%     46.67% # Class of executed instruction
system.cpu.op_class::SimdCmp                        0      0.00%     46.67% # Class of executed instruction
system.cpu.op_class::SimdCvt                        0      0.00%     46.67% # Class of executed instruction
system.cpu.op_class::SimdMisc                       0      0.00%     46.67% # Class of executed instruction
system.cpu.op_class::SimdMult                       0      0.00%     46.67% # Class of executed instruction
system.cpu.op_class::SimdMultAcc                    0      0.00%     46.67% # Class of executed instruction
system.cpu.op_class::SimdShift                      0      0.00%     46.67% # Class of executed instruction
system.cpu.op_class::SimdShiftAcc                   0      0.00%     46.67% # Class of executed instruction
system.cpu.op_class::SimdDiv                        0      0.00%     46.67% # Class of executed instruction
system.cpu.op_class::SimdSqrt                       0      0.00%     46.67% # Class of executed instruction
system.cpu.op_class::SimdFloatAdd                   2     13.33%     60.00% # Class of executed instruction
system.cpu.op_class::SimdFloatAlu                   0      0.00%     60.00% # Class of executed instruction
system.cpu.op_class::SimdFloatCmp                   0      0.00%     60.00% # Class of executed instruction
system.cpu.op_class::SimdFloatCvt                   0      0.00%     60.00% # Class of executed instruction
system.cpu.op_class::SimdFloatDiv                   0      0.00%     60.00% # Class of executed instruction
system.cpu.op_class::SimdFloatMisc                  0      0.00%     60.00% # Class of executed instruction
system.cpu.op_class::SimdFloatMult                  3     20.00%     80.00% # Class of executed instruction
system.cpu.op_class::SimdFloatMultAcc               0      0.00%     80.00% # Class of executed instruction
system.cpu.op_class::SimdFloatSqrt                  0      0.00%     80.00% # Class of executed instruction
system.cpu.op_class::SimdReduceAdd                  0      0.00%     80.00% # Class of executed instruction
system.cpu.op_class::SimdReduceAlu                  0      0.00%     80.00% # Class of executed instruction
system.cpu.op_class::SimdReduceCmp                  0      0.00%     80.00% # Class of executed instruction
system.cpu.op_class::SimdFloatReduceAdd             0      0.00%     80.00% # Class of executed instruction
system.cpu.op_class::SimdFloatReduceCmp             0      0.00%     80.00% # Class of executed instruction
system.cpu.op_class::SimdAes                        0      0.00%     80.00% # Class of executed instruction
system.cpu.op_class::SimdAesMix                     0      0.00%     80.00% # Class of executed instruction
system.cpu.op_class::SimdSha1Hash                   0      0.00%     80.00% # Class of executed instruction
system.cpu.op_class::SimdSha1Hash2                  0      0.00%     80.00% # Class of executed instruction
system.cpu.op_class::SimdSha256Hash                 0      0.00%     80.00% # Class of executed instruction
system.cpu.op_class::SimdSha256Hash2                0      0.00%     80.00% # Class of executed instruction
system.cpu.op_class::SimdShaSigma2                  0      0.00%     80.00% # Class of executed instruction
system.cpu.op_class::SimdShaSigma3                  0      0.00%     80.00% # Class of executed instruction
system.cpu.op_class::SimdPredAlu                    0      0.00%     80.00% # Class of executed instruction
system.cpu.op_class::MemRead                        0      0.00%     80.00% # Class of executed instruction
system.cpu.op_class::MemWrite                       0      0.00%     80.00% # Class of executed instruction
system.cpu.op_class::FloatMemRead                   3     20.00%    100.00% # Class of executed instruction
system.cpu.op_class::FloatMemWrite                  0      0.00%    100.00% # Class of executed instruction
system.cpu.op_class::IprAccess                      0      0.00%    100.00% # Class of executed instruction
system.cpu.op_class::InstPrefetch                   0      0.00%    100.00% # Class of executed instruction
system.cpu.op_class::total                         15                       # Class of executed instruction
system.cpu.workload.numSyscalls                     0                       # Number of system calls
system.membus.snoop_filter.hit_multi_requests            0                       # Number of requests hitting in the snoop filter with multiple (>1) holders of the requested data.
system.membus.snoop_filter.hit_multi_snoops            0                       # Number of snoops hitting in the snoop filter with multiple (>1) holders of the requested data.
system.membus.snoop_filter.hit_single_requests       249602                       # Number of requests hitting in the snoop filter with a single holder of the requested data.
system.membus.snoop_filter.hit_single_snoops            0                       # Number of snoops hitting in the snoop filter with a single holder of the requested data.
system.membus.snoop_filter.tot_requests        502518                       # Total number of requests made to the snoop filter.
system.membus.snoop_filter.tot_snoops               0                       # Total number of snoops made to the snoop filter.
system.switch_cpus.branchPred.BTBCorrect            0                       # Number of correct BTB predictions (this stat may not work properly.
system.switch_cpus.branchPred.BTBHitPct      0.000000                       # BTB Hit Percentage
system.switch_cpus.branchPred.BTBHits               0                       # Number of BTB hits
system.switch_cpus.branchPred.BTBLookups      3683285                       # Number of BTB lookups
system.switch_cpus.branchPred.RASInCorrect            9                       # Number of incorrect RAS predictions.
system.switch_cpus.branchPred.condIncorrect         7390                       # Number of conditional branches incorrect
system.switch_cpus.branchPred.condPredicted      4033026                       # Number of conditional branches predicted
system.switch_cpus.branchPred.indirectHits      3155585                       # Number of indirect target hits.
system.switch_cpus.branchPred.indirectLookups      3683285                       # Number of indirect predictor lookups.
system.switch_cpus.branchPred.indirectMisses       527700                       # Number of indirect misses.
system.switch_cpus.branchPred.lookups         5026633                       # Number of BP lookups
system.switch_cpus.branchPred.usedRAS          493171                       # Number of times the RAS was used to get a target.
system.switch_cpus.branchPredindirectMispredicted         1756                       # Number of mispredicted indirect branches.
system.switch_cpus.cc_regfile_reads          14441378                       # number of cc regfile reads
system.switch_cpus.cc_regfile_writes         14511906                       # number of cc regfile writes
system.switch_cpus.commit.amos                      0                       # Number of atomic instructions committed
system.switch_cpus.commit.branchMispredicts         7441                       # The number of times a branch was mispredicted
system.switch_cpus.commit.branches            1162057                       # Number of branches committed
system.switch_cpus.commit.bw_lim_events       1545200                       # number cycles where commit BW limit reached
system.switch_cpus.commit.commitNonSpecStalls        23852                       # The number of times commit has been forced to stall to communicate backwards
system.switch_cpus.commit.commitSquashedInsts     33173955                       # The number of squashed insts skipped by commit
system.switch_cpus.commit.committedInsts     10000002                       # Number of instructions committed
system.switch_cpus.commit.committedOps       18849196                       # Number of ops (including micro ops) committed
system.switch_cpus.commit.committed_per_cycle::samples     39300295                       # Number of insts commited each cycle
system.switch_cpus.commit.committed_per_cycle::mean     0.479620                       # Number of insts commited each cycle
system.switch_cpus.commit.committed_per_cycle::stdev     1.689855                       # Number of insts commited each cycle
system.switch_cpus.commit.committed_per_cycle::underflows            0      0.00%      0.00% # Number of insts commited each cycle
system.switch_cpus.commit.committed_per_cycle::0     35300919     89.82%     89.82% # Number of insts commited each cycle
system.switch_cpus.commit.committed_per_cycle::1       794196      2.02%     91.84% # Number of insts commited each cycle
system.switch_cpus.commit.committed_per_cycle::2       373821      0.95%     92.80% # Number of insts commited each cycle
system.switch_cpus.commit.committed_per_cycle::3       561389      1.43%     94.22% # Number of insts commited each cycle
system.switch_cpus.commit.committed_per_cycle::4       444808      1.13%     95.36% # Number of insts commited each cycle
system.switch_cpus.commit.committed_per_cycle::5       201389      0.51%     95.87% # Number of insts commited each cycle
system.switch_cpus.commit.committed_per_cycle::6        74597      0.19%     96.06% # Number of insts commited each cycle
system.switch_cpus.commit.committed_per_cycle::7         3976      0.01%     96.07% # Number of insts commited each cycle
system.switch_cpus.commit.committed_per_cycle::8      1545200      3.93%    100.00% # Number of insts commited each cycle
system.switch_cpus.commit.committed_per_cycle::overflows            0      0.00%    100.00% # Number of insts commited each cycle
system.switch_cpus.commit.committed_per_cycle::min_value            0                       # Number of insts commited each cycle
system.switch_cpus.commit.committed_per_cycle::max_value            8                       # Number of insts commited each cycle
system.switch_cpus.commit.committed_per_cycle::total     39300295                       # Number of insts commited each cycle
system.switch_cpus.commit.fp_insts            7755697                       # Number of committed floating point instructions.
system.switch_cpus.commit.function_calls       133713                       # Number of function calls committed.
system.switch_cpus.commit.int_insts          14669480                       # Number of committed integer instructions.
system.switch_cpus.commit.loads               3342337                       # Number of loads committed
system.switch_cpus.commit.membars                   0                       # Number of memory barriers committed
system.switch_cpus.commit.op_class_0::No_OpClass         3302      0.02%      0.02% # Class of committed instruction
system.switch_cpus.commit.op_class_0::IntAlu     10301514     54.65%     54.67% # Class of committed instruction
system.switch_cpus.commit.op_class_0::IntMult       106274      0.56%     55.23% # Class of committed instruction
system.switch_cpus.commit.op_class_0::IntDiv            0      0.00%     55.23% # Class of committed instruction
system.switch_cpus.commit.op_class_0::FloatAdd       637733      3.38%     58.62% # Class of committed instruction
system.switch_cpus.commit.op_class_0::FloatCmp            0      0.00%     58.62% # Class of committed instruction
system.switch_cpus.commit.op_class_0::FloatCvt            0      0.00%     58.62% # Class of committed instruction
system.switch_cpus.commit.op_class_0::FloatMult            0      0.00%     58.62% # Class of committed instruction
system.switch_cpus.commit.op_class_0::FloatMultAcc            0      0.00%     58.62% # Class of committed instruction
system.switch_cpus.commit.op_class_0::FloatDiv            0      0.00%     58.62% # Class of committed instruction
system.switch_cpus.commit.op_class_0::FloatMisc            0      0.00%     58.62% # Class of committed instruction
system.switch_cpus.commit.op_class_0::FloatSqrt            0      0.00%     58.62% # Class of committed instruction
system.switch_cpus.commit.op_class_0::SimdAdd          216      0.00%     58.62% # Class of committed instruction
system.switch_cpus.commit.op_class_0::SimdAddAcc            0      0.00%     58.62% # Class of committed instruction
system.switch_cpus.commit.op_class_0::SimdAlu       216430      1.15%     59.77% # Class of committed instruction
system.switch_cpus.commit.op_class_0::SimdCmp            0      0.00%     59.77% # Class of committed instruction
system.switch_cpus.commit.op_class_0::SimdCvt         2916      0.02%     59.78% # Class of committed instruction
system.switch_cpus.commit.op_class_0::SimdMisc       269023      1.43%     61.21% # Class of committed instruction
system.switch_cpus.commit.op_class_0::SimdMult            0      0.00%     61.21% # Class of committed instruction
system.switch_cpus.commit.op_class_0::SimdMultAcc            0      0.00%     61.21% # Class of committed instruction
system.switch_cpus.commit.op_class_0::SimdShift            0      0.00%     61.21% # Class of committed instruction
system.switch_cpus.commit.op_class_0::SimdShiftAcc            0      0.00%     61.21% # Class of committed instruction
system.switch_cpus.commit.op_class_0::SimdDiv            0      0.00%     61.21% # Class of committed instruction
system.switch_cpus.commit.op_class_0::SimdSqrt            0      0.00%     61.21% # Class of committed instruction
system.switch_cpus.commit.op_class_0::SimdFloatAdd       956439      5.07%     66.28% # Class of committed instruction
system.switch_cpus.commit.op_class_0::SimdFloatAlu            0      0.00%     66.28% # Class of committed instruction
system.switch_cpus.commit.op_class_0::SimdFloatCmp            0      0.00%     66.28% # Class of committed instruction
system.switch_cpus.commit.op_class_0::SimdFloatCvt       159408      0.85%     67.13% # Class of committed instruction
system.switch_cpus.commit.op_class_0::SimdFloatDiv        53135      0.28%     67.41% # Class of committed instruction
system.switch_cpus.commit.op_class_0::SimdFloatMisc            0      0.00%     67.41% # Class of committed instruction
system.switch_cpus.commit.op_class_0::SimdFloatMult       850169      4.51%     71.92% # Class of committed instruction
system.switch_cpus.commit.op_class_0::SimdFloatMultAcc            0      0.00%     71.92% # Class of committed instruction
system.switch_cpus.commit.op_class_0::SimdFloatSqrt            0      0.00%     71.92% # Class of committed instruction
system.switch_cpus.commit.op_class_0::SimdReduceAdd            0      0.00%     71.92% # Class of committed instruction
system.switch_cpus.commit.op_class_0::SimdReduceAlu            0      0.00%     71.92% # Class of committed instruction
system.switch_cpus.commit.op_class_0::SimdReduceCmp            0      0.00%     71.92% # Class of committed instruction
system.switch_cpus.commit.op_class_0::SimdFloatReduceAdd            0      0.00%     71.92% # Class of committed instruction
system.switch_cpus.commit.op_class_0::SimdFloatReduceCmp            0      0.00%     71.92% # Class of committed instruction
system.switch_cpus.commit.op_class_0::SimdAes            0      0.00%     71.92% # Class of committed instruction
system.switch_cpus.commit.op_class_0::SimdAesMix            0      0.00%     71.92% # Class of committed instruction
system.switch_cpus.commit.op_class_0::SimdSha1Hash            0      0.00%     71.92% # Class of committed instruction
system.switch_cpus.commit.op_class_0::SimdSha1Hash2            0      0.00%     71.92% # Class of committed instruction
system.switch_cpus.commit.op_class_0::SimdSha256Hash            0      0.00%     71.92% # Class of committed instruction
system.switch_cpus.commit.op_class_0::SimdSha256Hash2            0      0.00%     71.92% # Class of committed instruction
system.switch_cpus.commit.op_class_0::SimdShaSigma2            0      0.00%     71.92% # Class of committed instruction
system.switch_cpus.commit.op_class_0::SimdShaSigma3            0      0.00%     71.92% # Class of committed instruction
system.switch_cpus.commit.op_class_0::SimdPredAlu            0      0.00%     71.92% # Class of committed instruction
system.switch_cpus.commit.op_class_0::MemRead      1115630      5.92%     77.84% # Class of committed instruction
system.switch_cpus.commit.op_class_0::MemWrite       842245      4.47%     82.31% # Class of committed instruction
system.switch_cpus.commit.op_class_0::FloatMemRead      2226707     11.81%     94.12% # Class of committed instruction
system.switch_cpus.commit.op_class_0::FloatMemWrite      1108055      5.88%    100.00% # Class of committed instruction
system.switch_cpus.commit.op_class_0::IprAccess            0      0.00%    100.00% # Class of committed instruction
system.switch_cpus.commit.op_class_0::InstPrefetch            0      0.00%    100.00% # Class of committed instruction
system.switch_cpus.commit.op_class_0::total     18849196                       # Class of committed instruction
system.switch_cpus.commit.refs                5292637                       # Number of memory references committed
system.switch_cpus.commit.swp_count                 0                       # Number of s/w prefetches committed
system.switch_cpus.commit.vec_insts                 0                       # Number of committed Vector instructions.
system.switch_cpus.committedInsts            10000002                       # Number of Instructions Simulated
system.switch_cpus.committedOps              18849196                       # Number of Ops (including micro ops) Simulated
system.switch_cpus.cpi                       4.363575                       # CPI: Cycles Per Instruction
system.switch_cpus.cpi_total                 4.363575                       # CPI: Total CPI of All Threads
system.switch_cpus.decode.BlockedCycles      30270591                       # Number of cycles decode is blocked
system.switch_cpus.decode.DecodedInsts       64781782                       # Number of instructions handled by decode
system.switch_cpus.decode.IdleCycles          3607183                       # Number of cycles decode is idle
system.switch_cpus.decode.RunCycles           8519925                       # Number of cycles decode is running
system.switch_cpus.decode.SquashCycles         389373                       # Number of cycles decode is squashing
system.switch_cpus.decode.UnblockCycles        820532                       # Number of cycles decode is unblocking
system.switch_cpus.dtb.rdAccesses            12377154                       # TLB accesses on read requests
system.switch_cpus.dtb.rdMisses                  2074                       # TLB misses on read requests
system.switch_cpus.dtb.wrAccesses            10606430                       # TLB accesses on write requests
system.switch_cpus.dtb.wrMisses                  2003                       # TLB misses on write requests
system.switch_cpus.fetch.Branches             5026633                       # Number of branches that fetch encountered
system.switch_cpus.fetch.CacheLines           6314899                       # Number of cache lines fetched
system.switch_cpus.fetch.Cycles              36646932                       # Number of cycles fetch has run and was not squashing or blocked
system.switch_cpus.fetch.IcacheSquashes         46592                       # Number of outstanding Icache misses that were squashed
system.switch_cpus.fetch.Insts               35721209                       # Number of instructions fetch has processed
system.switch_cpus.fetch.MiscStallCycles           51                       # Number of cycles fetch has spent waiting on interrupts, or bad addresses, or out of MSHRs
system.switch_cpus.fetch.PendingTrapStallCycles          481                       # Number of stall cycles due to pending traps
system.switch_cpus.fetch.SquashCycles          778746                       # Number of cycles fetch has spent squashing
system.switch_cpus.fetch.branchRate          0.115195                       # Number of branch fetches per cycle
system.switch_cpus.fetch.icacheStallCycles      6570776                       # Number of cycles fetch is stalled on an Icache miss
system.switch_cpus.fetch.predictedBranches      3648756                       # Number of branches that fetch has predicted taken
system.switch_cpus.fetch.rate                0.818622                       # Number of inst fetches per cycle
system.switch_cpus.fetch.rateDist::samples     43607613                       # Number of instructions fetched each cycle (Total)
system.switch_cpus.fetch.rateDist::mean      1.770863                       # Number of instructions fetched each cycle (Total)
system.switch_cpus.fetch.rateDist::stdev     3.045846                       # Number of instructions fetched each cycle (Total)
system.switch_cpus.fetch.rateDist::underflows            0      0.00%      0.00% # Number of instructions fetched each cycle (Total)
system.switch_cpus.fetch.rateDist::0         30928843     70.93%     70.93% # Number of instructions fetched each cycle (Total)
system.switch_cpus.fetch.rateDist::1           701984      1.61%     72.54% # Number of instructions fetched each cycle (Total)
system.switch_cpus.fetch.rateDist::2           737856      1.69%     74.23% # Number of instructions fetched each cycle (Total)
system.switch_cpus.fetch.rateDist::3           987198      2.26%     76.49% # Number of instructions fetched each cycle (Total)
system.switch_cpus.fetch.rateDist::4          1260708      2.89%     79.38% # Number of instructions fetched each cycle (Total)
system.switch_cpus.fetch.rateDist::5           779500      1.79%     81.17% # Number of instructions fetched each cycle (Total)
system.switch_cpus.fetch.rateDist::6           901576      2.07%     83.24% # Number of instructions fetched each cycle (Total)
system.switch_cpus.fetch.rateDist::7           745549      1.71%     84.95% # Number of instructions fetched each cycle (Total)
system.switch_cpus.fetch.rateDist::8          6564399     15.05%    100.00% # Number of instructions fetched each cycle (Total)
system.switch_cpus.fetch.rateDist::overflows            0      0.00%    100.00% # Number of instructions fetched each cycle (Total)
system.switch_cpus.fetch.rateDist::min_value            0                       # Number of instructions fetched each cycle (Total)
system.switch_cpus.fetch.rateDist::max_value            8                       # Number of instructions fetched each cycle (Total)
system.switch_cpus.fetch.rateDist::total     43607613                       # Number of instructions fetched each cycle (Total)
system.switch_cpus.fp_regfile_reads          16038007                       # number of floating regfile reads
system.switch_cpus.fp_regfile_writes         12337496                       # number of floating regfile writes
system.switch_cpus.idleCycles                   28147                       # Total number of cycles that the CPU has spent unscheduled due to idling
system.switch_cpus.iew.branchMispredicts        10036                       # Number of branch mispredicts detected at execute
system.switch_cpus.iew.exec_branches          3500372                       # Number of branches executed
system.switch_cpus.iew.exec_nop                     0                       # number of nop insts executed
system.switch_cpus.iew.exec_rate             1.312656                       # Inst execution rate
system.switch_cpus.iew.exec_refs             23366095                       # number of memory reference insts executed
system.switch_cpus.iew.exec_stores           10606430                       # Number of stores executed
system.switch_cpus.iew.exec_swp                     0                       # number of swp insts executed
system.switch_cpus.iew.iewBlockCycles         7367122                       # Number of cycles IEW is blocking
system.switch_cpus.iew.iewDispLoadInsts      12602039                       # Number of dispatched load instructions
system.switch_cpus.iew.iewDispNonSpecInsts            0                       # Number of dispatched non-speculative instructions
system.switch_cpus.iew.iewDispSquashedInsts          201                       # Number of squashed instructions skipped by dispatch
system.switch_cpus.iew.iewDispStoreInsts     13733517                       # Number of dispatched store instructions
system.switch_cpus.iew.iewDispatchedInsts     61092848                       # Number of instructions dispatched to IQ
system.switch_cpus.iew.iewExecLoadInsts      12759665                       # Number of load instructions executed
system.switch_cpus.iew.iewExecSquashedInsts       423735                       # Number of squashed instructions skipped in execute
system.switch_cpus.iew.iewExecutedInsts      57278747                       # Number of executed instructions
system.switch_cpus.iew.iewIQFullEvents          30214                       # Number of times the IQ has become full, causing a stall
system.switch_cpus.iew.iewIdleCycles                0                       # Number of cycles IEW is idle
system.switch_cpus.iew.iewLSQFullEvents       1432090                       # Number of times the LSQ has become full, causing a stall
system.switch_cpus.iew.iewSquashCycles         389373                       # Number of cycles IEW is squashing
system.switch_cpus.iew.iewUnblockCycles       1349105                       # Number of cycles IEW is unblocking
system.switch_cpus.iew.lsq.thread0.blockedLoads            0                       # Number of blocked loads due to partial load-store forwarding
system.switch_cpus.iew.lsq.thread0.cacheBlocked        24673                       # Number of times an access to memory failed due to the cache being blocked
system.switch_cpus.iew.lsq.thread0.forwLoads       322095                       # Number of loads that had data forwarded from stores
system.switch_cpus.iew.lsq.thread0.ignoredResponses           31                       # Number of memory responses ignored because the instruction is squashed
system.switch_cpus.iew.lsq.thread0.invAddrLoads            0                       # Number of loads ignored due to an invalid address
system.switch_cpus.iew.lsq.thread0.invAddrSwpfs            0                       # Number of software prefetches ignored due to an invalid address
system.switch_cpus.iew.lsq.thread0.memOrderViolation          332                       # Number of memory ordering violations
system.switch_cpus.iew.lsq.thread0.rescheduledLoads            5                       # Number of loads that were rescheduled
system.switch_cpus.iew.lsq.thread0.squashedLoads      9259686                       # Number of loads squashed
system.switch_cpus.iew.lsq.thread0.squashedStores     11783216                       # Number of stores squashed
system.switch_cpus.iew.memOrderViolationEvents          332                       # Number of memory order violations
system.switch_cpus.iew.predictedNotTakenIncorrect         3541                       # Number of branches that were predicted not taken incorrectly
system.switch_cpus.iew.predictedTakenIncorrect         6495                       # Number of branches that were predicted taken incorrectly
system.switch_cpus.iew.wb_consumers          42225035                       # num instructions consuming a value
system.switch_cpus.iew.wb_count              52854764                       # cumulative count of insts written-back
system.switch_cpus.iew.wb_fanout             0.718994                       # average fanout of values written-back
system.switch_cpus.iew.wb_producers          30359553                       # num instructions producing a value
system.switch_cpus.iew.wb_rate               1.211272                       # insts written-back per cycle
system.switch_cpus.iew.wb_sent               56280374                       # cumulative count of insts sent to commit
system.switch_cpus.int_regfile_reads         76792938                       # number of integer regfile reads
system.switch_cpus.int_regfile_writes        26465895                       # number of integer regfile writes
system.switch_cpus.ipc                       0.229170                       # IPC: Instructions Per Cycle
system.switch_cpus.ipc_total                 0.229170                       # IPC: Total IPC of All Threads
system.switch_cpus.iq.FU_type_0::No_OpClass      3292539      5.71%      5.71% # Type of FU issued
system.switch_cpus.iq.FU_type_0::IntAlu      27631509     47.89%     53.59% # Type of FU issued
system.switch_cpus.iq.FU_type_0::IntMult       106274      0.18%     53.78% # Type of FU issued
system.switch_cpus.iq.FU_type_0::IntDiv             0      0.00%     53.78% # Type of FU issued
system.switch_cpus.iq.FU_type_0::FloatAdd       639125      1.11%     54.88% # Type of FU issued
system.switch_cpus.iq.FU_type_0::FloatCmp            0      0.00%     54.88% # Type of FU issued
system.switch_cpus.iq.FU_type_0::FloatCvt            0      0.00%     54.88% # Type of FU issued
system.switch_cpus.iq.FU_type_0::FloatMult            0      0.00%     54.88% # Type of FU issued
system.switch_cpus.iq.FU_type_0::FloatMultAcc            0      0.00%     54.88% # Type of FU issued
system.switch_cpus.iq.FU_type_0::FloatDiv            0      0.00%     54.88% # Type of FU issued
system.switch_cpus.iq.FU_type_0::FloatMisc            0      0.00%     54.88% # Type of FU issued
system.switch_cpus.iq.FU_type_0::FloatSqrt            0      0.00%     54.88% # Type of FU issued
system.switch_cpus.iq.FU_type_0::SimdAdd          222      0.00%     54.88% # Type of FU issued
system.switch_cpus.iq.FU_type_0::SimdAddAcc            0      0.00%     54.88% # Type of FU issued
system.switch_cpus.iq.FU_type_0::SimdAlu       216761      0.38%     55.26% # Type of FU issued
system.switch_cpus.iq.FU_type_0::SimdCmp            0      0.00%     55.26% # Type of FU issued
system.switch_cpus.iq.FU_type_0::SimdCvt         2974      0.01%     55.27% # Type of FU issued
system.switch_cpus.iq.FU_type_0::SimdMisc       269089      0.47%     55.73% # Type of FU issued
system.switch_cpus.iq.FU_type_0::SimdMult            0      0.00%     55.73% # Type of FU issued
system.switch_cpus.iq.FU_type_0::SimdMultAcc            0      0.00%     55.73% # Type of FU issued
system.switch_cpus.iq.FU_type_0::SimdShift            0      0.00%     55.73% # Type of FU issued
system.switch_cpus.iq.FU_type_0::SimdShiftAcc            0      0.00%     55.73% # Type of FU issued
system.switch_cpus.iq.FU_type_0::SimdDiv            0      0.00%     55.73% # Type of FU issued
system.switch_cpus.iq.FU_type_0::SimdSqrt            0      0.00%     55.73% # Type of FU issued
system.switch_cpus.iq.FU_type_0::SimdFloatAdd       956439      1.66%     57.39% # Type of FU issued
system.switch_cpus.iq.FU_type_0::SimdFloatAlu            0      0.00%     57.39% # Type of FU issued
system.switch_cpus.iq.FU_type_0::SimdFloatCmp            0      0.00%     57.39% # Type of FU issued
system.switch_cpus.iq.FU_type_0::SimdFloatCvt       159408      0.28%     57.67% # Type of FU issued
system.switch_cpus.iq.FU_type_0::SimdFloatDiv        53135      0.09%     57.76% # Type of FU issued
system.switch_cpus.iq.FU_type_0::SimdFloatMisc            0      0.00%     57.76% # Type of FU issued
system.switch_cpus.iq.FU_type_0::SimdFloatMult       850169      1.47%     59.23% # Type of FU issued
system.switch_cpus.iq.FU_type_0::SimdFloatMultAcc            0      0.00%     59.23% # Type of FU issued
system.switch_cpus.iq.FU_type_0::SimdFloatSqrt            0      0.00%     59.23% # Type of FU issued
system.switch_cpus.iq.FU_type_0::SimdReduceAdd            0      0.00%     59.23% # Type of FU issued
system.switch_cpus.iq.FU_type_0::SimdReduceAlu            0      0.00%     59.23% # Type of FU issued
system.switch_cpus.iq.FU_type_0::SimdReduceCmp            0      0.00%     59.23% # Type of FU issued
system.switch_cpus.iq.FU_type_0::SimdFloatReduceAdd            0      0.00%     59.23% # Type of FU issued
system.switch_cpus.iq.FU_type_0::SimdFloatReduceCmp            0      0.00%     59.23% # Type of FU issued
system.switch_cpus.iq.FU_type_0::SimdAes            0      0.00%     59.23% # Type of FU issued
system.switch_cpus.iq.FU_type_0::SimdAesMix            0      0.00%     59.23% # Type of FU issued
system.switch_cpus.iq.FU_type_0::SimdSha1Hash            0      0.00%     59.23% # Type of FU issued
system.switch_cpus.iq.FU_type_0::SimdSha1Hash2            0      0.00%     59.23% # Type of FU issued
system.switch_cpus.iq.FU_type_0::SimdSha256Hash            0      0.00%     59.23% # Type of FU issued
system.switch_cpus.iq.FU_type_0::SimdSha256Hash2            0      0.00%     59.23% # Type of FU issued
system.switch_cpus.iq.FU_type_0::SimdShaSigma2            0      0.00%     59.23% # Type of FU issued
system.switch_cpus.iq.FU_type_0::SimdShaSigma3            0      0.00%     59.23% # Type of FU issued
system.switch_cpus.iq.FU_type_0::SimdPredAlu            0      0.00%     59.23% # Type of FU issued
system.switch_cpus.iq.FU_type_0::MemRead      3657887      6.34%     65.57% # Type of FU issued
system.switch_cpus.iq.FU_type_0::MemWrite      3731220      6.47%     72.04% # Type of FU issued
system.switch_cpus.iq.FU_type_0::FloatMemRead      9259569     16.05%     88.08% # Type of FU issued
system.switch_cpus.iq.FU_type_0::FloatMemWrite      6876167     11.92%    100.00% # Type of FU issued
system.switch_cpus.iq.FU_type_0::IprAccess            0      0.00%    100.00% # Type of FU issued
system.switch_cpus.iq.FU_type_0::InstPrefetch            0      0.00%    100.00% # Type of FU issued
system.switch_cpus.iq.FU_type_0::total       57702487                       # Type of FU issued
system.switch_cpus.iq.fp_alu_accesses        22799736                       # Number of floating point alu accesses
system.switch_cpus.iq.fp_inst_queue_reads     43416159                       # Number of floating instruction queue reads
system.switch_cpus.iq.fp_inst_queue_wakeup_accesses     19505469                       # Number of floating instruction queue wakeup accesses
system.switch_cpus.iq.fp_inst_queue_writes     38364955                       # Number of floating instruction queue writes
system.switch_cpus.iq.fu_busy_cnt             3098364                       # FU busy when requested
system.switch_cpus.iq.fu_busy_rate           0.053696                       # FU busy rate (busy events/executed inst)
system.switch_cpus.iq.fu_full::No_OpClass            0      0.00%      0.00% # attempts to use FU when none available
system.switch_cpus.iq.fu_full::IntAlu          181737      5.87%      5.87% # attempts to use FU when none available
system.switch_cpus.iq.fu_full::IntMult              0      0.00%      5.87% # attempts to use FU when none available
system.switch_cpus.iq.fu_full::IntDiv               0      0.00%      5.87% # attempts to use FU when none available
system.switch_cpus.iq.fu_full::FloatAdd             0      0.00%      5.87% # attempts to use FU when none available
system.switch_cpus.iq.fu_full::FloatCmp             0      0.00%      5.87% # attempts to use FU when none available
system.switch_cpus.iq.fu_full::FloatCvt             0      0.00%      5.87% # attempts to use FU when none available
system.switch_cpus.iq.fu_full::FloatMult            0      0.00%      5.87% # attempts to use FU when none available
system.switch_cpus.iq.fu_full::FloatMultAcc            0      0.00%      5.87% # attempts to use FU when none available
system.switch_cpus.iq.fu_full::FloatDiv             0      0.00%      5.87% # attempts to use FU when none available
system.switch_cpus.iq.fu_full::FloatMisc            0      0.00%      5.87% # attempts to use FU when none available
system.switch_cpus.iq.fu_full::FloatSqrt            0      0.00%      5.87% # attempts to use FU when none available
system.switch_cpus.iq.fu_full::SimdAdd              0      0.00%      5.87% # attempts to use FU when none available
system.switch_cpus.iq.fu_full::SimdAddAcc            0      0.00%      5.87% # attempts to use FU when none available
system.switch_cpus.iq.fu_full::SimdAlu            432      0.01%      5.88% # attempts to use FU when none available
system.switch_cpus.iq.fu_full::SimdCmp              0      0.00%      5.88% # attempts to use FU when none available
system.switch_cpus.iq.fu_full::SimdCvt              0      0.00%      5.88% # attempts to use FU when none available
system.switch_cpus.iq.fu_full::SimdMisc           322      0.01%      5.89% # attempts to use FU when none available
system.switch_cpus.iq.fu_full::SimdMult             0      0.00%      5.89% # attempts to use FU when none available
system.switch_cpus.iq.fu_full::SimdMultAcc            0      0.00%      5.89% # attempts to use FU when none available
system.switch_cpus.iq.fu_full::SimdShift            0      0.00%      5.89% # attempts to use FU when none available
system.switch_cpus.iq.fu_full::SimdShiftAcc            0      0.00%      5.89% # attempts to use FU when none available
system.switch_cpus.iq.fu_full::SimdDiv              0      0.00%      5.89% # attempts to use FU when none available
system.switch_cpus.iq.fu_full::SimdSqrt             0      0.00%      5.89% # attempts to use FU when none available
system.switch_cpus.iq.fu_full::SimdFloatAdd            0      0.00%      5.89% # attempts to use FU when none available
system.switch_cpus.iq.fu_full::SimdFloatAlu            0      0.00%      5.89% # attempts to use FU when none available
system.switch_cpus.iq.fu_full::SimdFloatCmp            0      0.00%      5.89% # attempts to use FU when none available
system.switch_cpus.iq.fu_full::SimdFloatCvt            0      0.00%      5.89% # attempts to use FU when none available
system.switch_cpus.iq.fu_full::SimdFloatDiv            0      0.00%      5.89% # attempts to use FU when none available
system.switch_cpus.iq.fu_full::SimdFloatMisc            0      0.00%      5.89% # attempts to use FU when none available
system.switch_cpus.iq.fu_full::SimdFloatMult            0      0.00%      5.89% # attempts to use FU when none available
system.switch_cpus.iq.fu_full::SimdFloatMultAcc            0      0.00%      5.89% # attempts to use FU when none available
system.switch_cpus.iq.fu_full::SimdFloatSqrt            0      0.00%      5.89% # attempts to use FU when none available
system.switch_cpus.iq.fu_full::SimdReduceAdd            0      0.00%      5.89% # attempts to use FU when none available
system.switch_cpus.iq.fu_full::SimdReduceAlu            0      0.00%      5.89% # attempts to use FU when none available
system.switch_cpus.iq.fu_full::SimdReduceCmp            0      0.00%      5.89% # attempts to use FU when none available
system.switch_cpus.iq.fu_full::SimdFloatReduceAdd            0      0.00%      5.89% # attempts to use FU when none available
system.switch_cpus.iq.fu_full::SimdFloatReduceCmp            0      0.00%      5.89% # attempts to use FU when none available
system.switch_cpus.iq.fu_full::SimdAes              0      0.00%      5.89% # attempts to use FU when none available
system.switch_cpus.iq.fu_full::SimdAesMix            0      0.00%      5.89% # attempts to use FU when none available
system.switch_cpus.iq.fu_full::SimdSha1Hash            0      0.00%      5.89% # attempts to use FU when none available
system.switch_cpus.iq.fu_full::SimdSha1Hash2            0      0.00%      5.89% # attempts to use FU when none available
system.switch_cpus.iq.fu_full::SimdSha256Hash            0      0.00%      5.89% # attempts to use FU when none available
system.switch_cpus.iq.fu_full::SimdSha256Hash2            0      0.00%      5.89% # attempts to use FU when none available
system.switch_cpus.iq.fu_full::SimdShaSigma2            0      0.00%      5.89% # attempts to use FU when none available
system.switch_cpus.iq.fu_full::SimdShaSigma3            0      0.00%      5.89% # attempts to use FU when none available
system.switch_cpus.iq.fu_full::SimdPredAlu            0      0.00%      5.89% # attempts to use FU when none available
system.switch_cpus.iq.fu_full::MemRead         202616      6.54%     12.43% # attempts to use FU when none available
system.switch_cpus.iq.fu_full::MemWrite        473001     15.27%     27.70% # attempts to use FU when none available
system.switch_cpus.iq.fu_full::FloatMemRead      1664483     53.72%     81.42% # attempts to use FU when none available
system.switch_cpus.iq.fu_full::FloatMemWrite       575773     18.58%    100.00% # attempts to use FU when none available
system.switch_cpus.iq.fu_full::IprAccess            0      0.00%    100.00% # attempts to use FU when none available
system.switch_cpus.iq.fu_full::InstPrefetch            0      0.00%    100.00% # attempts to use FU when none available
system.switch_cpus.iq.int_alu_accesses       34708576                       # Number of integer alu accesses
system.switch_cpus.iq.int_inst_queue_reads    118755231                       # Number of integer instruction queue reads
system.switch_cpus.iq.int_inst_queue_wakeup_accesses     33349295                       # Number of integer instruction queue wakeup accesses
system.switch_cpus.iq.int_inst_queue_writes     64971809                       # Number of integer instruction queue writes
system.switch_cpus.iq.iqInstsAdded           60806580                       # Number of instructions added to the IQ (excludes non-spec)
system.switch_cpus.iq.iqInstsIssued          57702487                       # Number of instructions issued
system.switch_cpus.iq.iqNonSpecInstsAdded       286268                       # Number of non-speculative instructions added to the IQ
system.switch_cpus.iq.iqSquashedInstsExamined     42243588                       # Number of squashed instructions iterated over during squash; mainly for profiling
system.switch_cpus.iq.iqSquashedInstsIssued        60444                       # Number of squashed instructions issued
system.switch_cpus.iq.iqSquashedNonSpecRemoved       262416                       # Number of squashed non-spec instructions that were removed
system.switch_cpus.iq.iqSquashedOperandsExamined     16663664                       # Number of squashed operands that are examined and possibly removed from graph
system.switch_cpus.iq.issued_per_cycle::samples     43607613                       # Number of insts issued each cycle
system.switch_cpus.iq.issued_per_cycle::mean     1.323220                       # Number of insts issued each cycle
system.switch_cpus.iq.issued_per_cycle::stdev     2.374006                       # Number of insts issued each cycle
system.switch_cpus.iq.issued_per_cycle::underflows            0      0.00%      0.00% # Number of insts issued each cycle
system.switch_cpus.iq.issued_per_cycle::0     30953566     70.98%     70.98% # Number of insts issued each cycle
system.switch_cpus.iq.issued_per_cycle::1      1202580      2.76%     73.74% # Number of insts issued each cycle
system.switch_cpus.iq.issued_per_cycle::2      1661334      3.81%     77.55% # Number of insts issued each cycle
system.switch_cpus.iq.issued_per_cycle::3      1272018      2.92%     80.47% # Number of insts issued each cycle
system.switch_cpus.iq.issued_per_cycle::4      2014902      4.62%     85.09% # Number of insts issued each cycle
system.switch_cpus.iq.issued_per_cycle::5      1816249      4.16%     89.25% # Number of insts issued each cycle
system.switch_cpus.iq.issued_per_cycle::6      2172825      4.98%     94.23% # Number of insts issued each cycle
system.switch_cpus.iq.issued_per_cycle::7       929730      2.13%     96.37% # Number of insts issued each cycle
system.switch_cpus.iq.issued_per_cycle::8      1584409      3.63%    100.00% # Number of insts issued each cycle
system.switch_cpus.iq.issued_per_cycle::overflows            0      0.00%    100.00% # Number of insts issued each cycle
system.switch_cpus.iq.issued_per_cycle::min_value            0                       # Number of insts issued each cycle
system.switch_cpus.iq.issued_per_cycle::max_value            8                       # Number of insts issued each cycle
system.switch_cpus.iq.issued_per_cycle::total     43607613                       # Number of insts issued each cycle
system.switch_cpus.iq.rate                   1.322367                       # Inst issue rate
system.switch_cpus.iq.vec_alu_accesses              0                       # Number of vector alu accesses
system.switch_cpus.iq.vec_inst_queue_reads            0                       # Number of vector instruction queue reads
system.switch_cpus.iq.vec_inst_queue_wakeup_accesses            0                       # Number of vector instruction queue wakeup accesses
system.switch_cpus.iq.vec_inst_queue_writes            0                       # Number of vector instruction queue writes
system.switch_cpus.itb.rdAccesses                   0                       # TLB accesses on read requests
system.switch_cpus.itb.rdMisses                     0                       # TLB misses on read requests
system.switch_cpus.itb.wrAccesses             6314981                       # TLB accesses on write requests
system.switch_cpus.itb.wrMisses                   122                       # TLB misses on write requests
system.switch_cpus.memDep0.conflictingLoads        14355                       # Number of conflicting loads.
system.switch_cpus.memDep0.conflictingStores      3382889                       # Number of conflicting stores.
system.switch_cpus.memDep0.insertedLoads     12602039                       # Number of loads inserted to the mem dependence unit.
system.switch_cpus.memDep0.insertedStores     13733517                       # Number of stores inserted to the mem dependence unit.
system.switch_cpus.misc_regfile_reads        31199202                       # number of misc regfile reads
system.switch_cpus.misc_regfile_writes              1                       # number of misc regfile writes
system.switch_cpus.numCycles                 43635760                       # number of cpu cycles simulated
system.switch_cpus.numWorkItemsCompleted            0                       # number of work items this cpu completed
system.switch_cpus.numWorkItemsStarted              0                       # number of work items this cpu started
system.switch_cpus.rename.BlockCycles         8806503                       # Number of cycles rename is blocking
system.switch_cpus.rename.CommittedMaps      20372182                       # Number of HB maps that are committed
system.switch_cpus.rename.IQFullEvents         140782                       # Number of times rename has blocked due to IQ full
system.switch_cpus.rename.IdleCycles          4024328                       # Number of cycles rename is idle
system.switch_cpus.rename.LQFullEvents         473354                       # Number of times rename has blocked due to LQ full
system.switch_cpus.rename.ROBFullEvents          3095                       # Number of times rename has blocked due to ROB full
system.switch_cpus.rename.RenameLookups     155530378                       # Number of register rename lookups that rename has made
system.switch_cpus.rename.RenamedInsts       62313162                       # Number of instructions processed by rename
system.switch_cpus.rename.RenamedOperands     56534683                       # Number of destination operands rename has renamed
system.switch_cpus.rename.RunCycles           8765045                       # Number of cycles rename is running
system.switch_cpus.rename.SQFullEvents       21108254                       # Number of times rename has blocked due to SQ full
system.switch_cpus.rename.SquashCycles         389373                       # Number of cycles rename is squashing
system.switch_cpus.rename.UnblockCycles      21622355                       # Number of cycles rename is unblocking
system.switch_cpus.rename.UndoneMaps         36162403                       # Number of HB maps that are undone due to squashing
system.switch_cpus.rename.fp_rename_lookups     18820745                       # Number of floating rename lookups
system.switch_cpus.rename.int_rename_lookups     86161472                       # Number of integer rename lookups
system.switch_cpus.rename.serializeStallCycles            0                       # count of cycles rename stalled for serializing inst
system.switch_cpus.rename.serializingInsts            0                       # count of serializing insts renamed
system.switch_cpus.rename.skidInsts           5625507                       # count of insts added to the skid buffer
system.switch_cpus.rename.tempSerializingInsts            0                       # count of temporary serializing insts renamed
system.switch_cpus.rob.rob_reads             84817030                       # The number of ROB reads
system.switch_cpus.rob.rob_writes           108353781                       # The number of ROB writes
system.switch_cpus.timesIdled                     429                       # Number of times that the entire CPU went into an idle state and unscheduled itself
system.tol2bus.snoop_filter.hit_multi_requests            1                       # Number of requests hitting in the snoop filter with multiple (>1) holders of the requested data.
system.tol2bus.snoop_filter.hit_multi_snoops            0                       # Number of snoops hitting in the snoop filter with multiple (>1) holders of the requested data.
system.tol2bus.snoop_filter.hit_single_requests       252369                       # Number of requests hitting in the snoop filter with a single holder of the requested data.
system.tol2bus.snoop_filter.hit_single_snoops       244435                       # Number of snoops hitting in the snoop filter with a single holder of the requested data.
system.tol2bus.snoop_filter.tot_requests       506122                       # Total number of requests made to the snoop filter.
system.tol2bus.snoop_filter.tot_snoops         244435                       # Total number of snoops made to the snoop filter.
system.membus.pwrStateResidencyTicks::UNDEFINED 1774440749000                       # Cumulative time (in ticks) in various power states
system.membus.trans_dist::ReadResp             126977                       # Transaction distribution
system.membus.trans_dist::WritebackDirty       124128                       # Transaction distribution
system.membus.trans_dist::CleanEvict           125474                       # Transaction distribution
system.membus.trans_dist::ReadExReq            125939                       # Transaction distribution
system.membus.trans_dist::ReadExResp           125939                       # Transaction distribution
system.membus.trans_dist::ReadSharedReq        126977                       # Transaction distribution
system.membus.pkt_count_system.l2.mem_side::system.mem_ctrls.port       755434                       # Packet count per connected master and slave (bytes)
system.membus.pkt_count_system.l2.mem_side::total       755434                       # Packet count per connected master and slave (bytes)
system.membus.pkt_count::total                 755434                       # Packet count per connected master and slave (bytes)
system.membus.pkt_size_system.l2.mem_side::system.mem_ctrls.port     24130816                       # Cumulative packet size per connected master and slave (bytes)
system.membus.pkt_size_system.l2.mem_side::total     24130816                       # Cumulative packet size per connected master and slave (bytes)
system.membus.pkt_size::total                24130816                       # Cumulative packet size per connected master and slave (bytes)
system.membus.snoops                                0                       # Total snoops (count)
system.membus.snoopTraffic                          0                       # Total snoop traffic (bytes)
system.membus.snoop_fanout::samples            252916                       # Request fanout histogram
system.membus.snoop_fanout::mean                    0                       # Request fanout histogram
system.membus.snoop_fanout::stdev                   0                       # Request fanout histogram
system.membus.snoop_fanout::underflows              0      0.00%      0.00% # Request fanout histogram
system.membus.snoop_fanout::0                  252916    100.00%    100.00% # Request fanout histogram
system.membus.snoop_fanout::1                       0      0.00%    100.00% # Request fanout histogram
system.membus.snoop_fanout::overflows               0      0.00%    100.00% # Request fanout histogram
system.membus.snoop_fanout::min_value               0                       # Request fanout histogram
system.membus.snoop_fanout::max_value               0                       # Request fanout histogram
system.membus.snoop_fanout::total              252916                       # Request fanout histogram
system.membus.reqLayer2.occupancy          1025822000                       # Layer occupancy (ticks)
system.membus.reqLayer2.utilization               4.7                       # Layer utilization (%)
system.membus.respLayer1.occupancy         1317783000                       # Layer occupancy (ticks)
system.membus.respLayer1.utilization              6.0                       # Layer utilization (%)
system.switch_cpus.pwrStateResidencyTicks::OFF  21817890250                       # Cumulative time (in ticks) in various power states
system.switch_cpus.dtb.walker.pwrStateResidencyTicks::UNDEFINED 1774440749000                       # Cumulative time (in ticks) in various power states
system.switch_cpus.itb.walker.pwrStateResidencyTicks::UNDEFINED 1774440749000                       # Cumulative time (in ticks) in various power states
system.tol2bus.pwrStateResidencyTicks::UNDEFINED 1774440749000                       # Cumulative time (in ticks) in various power states
system.tol2bus.trans_dist::ReadResp            127810                       # Transaction distribution
system.tol2bus.trans_dist::WritebackDirty       249673                       # Transaction distribution
system.tol2bus.trans_dist::WritebackClean          600                       # Transaction distribution
system.tol2bus.trans_dist::CleanEvict          374252                       # Transaction distribution
system.tol2bus.trans_dist::ReadExReq           125942                       # Transaction distribution
system.tol2bus.trans_dist::ReadExResp          125942                       # Transaction distribution
system.tol2bus.trans_dist::ReadCleanReq           959                       # Transaction distribution
system.tol2bus.trans_dist::ReadSharedReq       126852                       # Transaction distribution
system.tol2bus.pkt_count_system.cpu.icache.mem_side::system.l2.cpu_side         2518                       # Packet count per connected master and slave (bytes)
system.tol2bus.pkt_count_system.cpu.dcache.mem_side::system.l2.cpu_side       757356                       # Packet count per connected master and slave (bytes)
system.tol2bus.pkt_count::total                759874                       # Packet count per connected master and slave (bytes)
system.tol2bus.pkt_size_system.cpu.icache.mem_side::system.l2.cpu_side        99776                       # Cumulative packet size per connected master and slave (bytes)
system.tol2bus.pkt_size_system.cpu.dcache.mem_side::system.l2.cpu_side     24213568                       # Cumulative packet size per connected master and slave (bytes)
system.tol2bus.pkt_size::total               24313344                       # Cumulative packet size per connected master and slave (bytes)
system.tol2bus.snoops                          372156                       # Total snoops (count)
system.tol2bus.snoopTraffic                   7944256                       # Total snoop traffic (bytes)
system.tol2bus.snoop_fanout::samples           625909                       # Request fanout histogram
system.tol2bus.snoop_fanout::mean            0.390530                       # Request fanout histogram
system.tol2bus.snoop_fanout::stdev           0.487869                       # Request fanout histogram
system.tol2bus.snoop_fanout::underflows             0      0.00%      0.00% # Request fanout histogram
system.tol2bus.snoop_fanout::0                 381473     60.95%     60.95% # Request fanout histogram
system.tol2bus.snoop_fanout::1                 244436     39.05%    100.00% # Request fanout histogram
system.tol2bus.snoop_fanout::2                      0      0.00%    100.00% # Request fanout histogram
system.tol2bus.snoop_fanout::3                      0      0.00%    100.00% # Request fanout histogram
system.tol2bus.snoop_fanout::4                      0      0.00%    100.00% # Request fanout histogram
system.tol2bus.snoop_fanout::overflows              0      0.00%    100.00% # Request fanout histogram
system.tol2bus.snoop_fanout::min_value              0                       # Request fanout histogram
system.tol2bus.snoop_fanout::max_value              1                       # Request fanout histogram
system.tol2bus.snoop_fanout::total             625909                       # Request fanout histogram
system.tol2bus.reqLayer0.occupancy          379203000                       # Layer occupancy (ticks)
system.tol2bus.reqLayer0.utilization              1.7                       # Layer utilization (%)
system.tol2bus.respLayer1.occupancy         379186500                       # Layer occupancy (ticks)
system.tol2bus.respLayer1.utilization             1.7                       # Layer utilization (%)
system.tol2bus.respLayer0.occupancy           1435500                       # Layer occupancy (ticks)
system.tol2bus.respLayer0.utilization             0.0                       # Layer utilization (%)
system.voltage_domain.voltage                       1                       # Voltage in Volts
system.clk_domain.clock                          1000                       # Clock period in ticks
system.l2.pwrStateResidencyTicks::UNDEFINED 1774440749000                       # Cumulative time (in ticks) in various power states
system.l2.demand_hits::.switch_cpus.inst          556                       # number of demand (read+write) hits
system.l2.demand_hits::.switch_cpus.data          281                       # number of demand (read+write) hits
system.l2.demand_hits::total                      837                       # number of demand (read+write) hits
system.l2.overall_hits::.switch_cpus.inst          556                       # number of overall hits
system.l2.overall_hits::.switch_cpus.data          281                       # number of overall hits
system.l2.overall_hits::total                     837                       # number of overall hits
system.l2.demand_misses::.cpu.inst                  2                       # number of demand (read+write) misses
system.l2.demand_misses::.cpu.data                  2                       # number of demand (read+write) misses
system.l2.demand_misses::.switch_cpus.inst          401                       # number of demand (read+write) misses
system.l2.demand_misses::.switch_cpus.data       252511                       # number of demand (read+write) misses
system.l2.demand_misses::total                 252916                       # number of demand (read+write) misses
system.l2.overall_misses::.cpu.inst                 2                       # number of overall misses
system.l2.overall_misses::.cpu.data                 2                       # number of overall misses
system.l2.overall_misses::.switch_cpus.inst          401                       # number of overall misses
system.l2.overall_misses::.switch_cpus.data       252511                       # number of overall misses
system.l2.overall_misses::total                252916                       # number of overall misses
system.l2.demand_miss_latency::.switch_cpus.inst     34533000                       # number of demand (read+write) miss cycles
system.l2.demand_miss_latency::.switch_cpus.data  20302580500                       # number of demand (read+write) miss cycles
system.l2.demand_miss_latency::total      20337113500                       # number of demand (read+write) miss cycles
system.l2.overall_miss_latency::.switch_cpus.inst     34533000                       # number of overall miss cycles
system.l2.overall_miss_latency::.switch_cpus.data  20302580500                       # number of overall miss cycles
system.l2.overall_miss_latency::total     20337113500                       # number of overall miss cycles
system.l2.demand_accesses::.cpu.inst                2                       # number of demand (read+write) accesses
system.l2.demand_accesses::.cpu.data                2                       # number of demand (read+write) accesses
system.l2.demand_accesses::.switch_cpus.inst          957                       # number of demand (read+write) accesses
system.l2.demand_accesses::.switch_cpus.data       252792                       # number of demand (read+write) accesses
system.l2.demand_accesses::total               253753                       # number of demand (read+write) accesses
system.l2.overall_accesses::.cpu.inst               2                       # number of overall (read+write) accesses
system.l2.overall_accesses::.cpu.data               2                       # number of overall (read+write) accesses
system.l2.overall_accesses::.switch_cpus.inst          957                       # number of overall (read+write) accesses
system.l2.overall_accesses::.switch_cpus.data       252792                       # number of overall (read+write) accesses
system.l2.overall_accesses::total              253753                       # number of overall (read+write) accesses
system.l2.demand_miss_rate::.cpu.inst               1                       # miss rate for demand accesses
system.l2.demand_miss_rate::.cpu.data               1                       # miss rate for demand accesses
system.l2.demand_miss_rate::.switch_cpus.inst     0.419018                       # miss rate for demand accesses
system.l2.demand_miss_rate::.switch_cpus.data     0.998888                       # miss rate for demand accesses
system.l2.demand_miss_rate::total            0.996702                       # miss rate for demand accesses
system.l2.overall_miss_rate::.cpu.inst              1                       # miss rate for overall accesses
system.l2.overall_miss_rate::.cpu.data              1                       # miss rate for overall accesses
system.l2.overall_miss_rate::.switch_cpus.inst     0.419018                       # miss rate for overall accesses
system.l2.overall_miss_rate::.switch_cpus.data     0.998888                       # miss rate for overall accesses
system.l2.overall_miss_rate::total           0.996702                       # miss rate for overall accesses
system.l2.demand_avg_miss_latency::.switch_cpus.inst 86117.206983                       # average overall miss latency
system.l2.demand_avg_miss_latency::.switch_cpus.data 80402.756712                       # average overall miss latency
system.l2.demand_avg_miss_latency::total 80410.545398                       # average overall miss latency
system.l2.overall_avg_miss_latency::.switch_cpus.inst 86117.206983                       # average overall miss latency
system.l2.overall_avg_miss_latency::.switch_cpus.data 80402.756712                       # average overall miss latency
system.l2.overall_avg_miss_latency::total 80410.545398                       # average overall miss latency
system.l2.blocked_cycles::no_mshrs                  0                       # number of cycles access was blocked
system.l2.blocked_cycles::no_targets                0                       # number of cycles access was blocked
system.l2.blocked::no_mshrs                         0                       # number of cycles access was blocked
system.l2.blocked::no_targets                       0                       # number of cycles access was blocked
system.l2.avg_blocked_cycles::no_mshrs            nan                       # average number of cycles each access was blocked
system.l2.avg_blocked_cycles::no_targets          nan                       # average number of cycles each access was blocked
system.l2.writebacks::.writebacks              124129                       # number of writebacks
system.l2.writebacks::total                    124129                       # number of writebacks
system.l2.demand_mshr_misses::.switch_cpus.inst          401                       # number of demand (read+write) MSHR misses
system.l2.demand_mshr_misses::.switch_cpus.data       252511                       # number of demand (read+write) MSHR misses
system.l2.demand_mshr_misses::total            252912                       # number of demand (read+write) MSHR misses
system.l2.overall_mshr_misses::.switch_cpus.inst          401                       # number of overall MSHR misses
system.l2.overall_mshr_misses::.switch_cpus.data       252511                       # number of overall MSHR misses
system.l2.overall_mshr_misses::total           252912                       # number of overall MSHR misses
system.l2.demand_mshr_miss_latency::.switch_cpus.inst     30523000                       # number of demand (read+write) MSHR miss cycles
system.l2.demand_mshr_miss_latency::.switch_cpus.data  17777470500                       # number of demand (read+write) MSHR miss cycles
system.l2.demand_mshr_miss_latency::total  17807993500                       # number of demand (read+write) MSHR miss cycles
system.l2.overall_mshr_miss_latency::.switch_cpus.inst     30523000                       # number of overall MSHR miss cycles
system.l2.overall_mshr_miss_latency::.switch_cpus.data  17777470500                       # number of overall MSHR miss cycles
system.l2.overall_mshr_miss_latency::total  17807993500                       # number of overall MSHR miss cycles
system.l2.demand_mshr_miss_rate::.switch_cpus.inst     0.419018                       # mshr miss rate for demand accesses
system.l2.demand_mshr_miss_rate::.switch_cpus.data     0.998888                       # mshr miss rate for demand accesses
system.l2.demand_mshr_miss_rate::total       0.996686                       # mshr miss rate for demand accesses
system.l2.overall_mshr_miss_rate::.switch_cpus.inst     0.419018                       # mshr miss rate for overall accesses
system.l2.overall_mshr_miss_rate::.switch_cpus.data     0.998888                       # mshr miss rate for overall accesses
system.l2.overall_mshr_miss_rate::total      0.996686                       # mshr miss rate for overall accesses
system.l2.demand_avg_mshr_miss_latency::.switch_cpus.inst 76117.206983                       # average overall mshr miss latency
system.l2.demand_avg_mshr_miss_latency::.switch_cpus.data 70402.756712                       # average overall mshr miss latency
system.l2.demand_avg_mshr_miss_latency::total 70411.817154                       # average overall mshr miss latency
system.l2.overall_avg_mshr_miss_latency::.switch_cpus.inst 76117.206983                       # average overall mshr miss latency
system.l2.overall_avg_mshr_miss_latency::.switch_cpus.data 70402.756712                       # average overall mshr miss latency
system.l2.overall_avg_mshr_miss_latency::total 70411.817154                       # average overall mshr miss latency
system.l2.replacements                         372156                       # number of replacements
system.l2.WritebackDirty_hits::.writebacks       125544                       # number of WritebackDirty hits
system.l2.WritebackDirty_hits::total           125544                       # number of WritebackDirty hits
system.l2.WritebackDirty_accesses::.writebacks       125544                       # number of WritebackDirty accesses(hits+misses)
system.l2.WritebackDirty_accesses::total       125544                       # number of WritebackDirty accesses(hits+misses)
system.l2.WritebackClean_hits::.writebacks          600                       # number of WritebackClean hits
system.l2.WritebackClean_hits::total              600                       # number of WritebackClean hits
system.l2.WritebackClean_accesses::.writebacks          600                       # number of WritebackClean accesses(hits+misses)
system.l2.WritebackClean_accesses::total          600                       # number of WritebackClean accesses(hits+misses)
system.l2.CleanEvict_mshr_misses::.writebacks       121882                       # number of CleanEvict MSHR misses
system.l2.CleanEvict_mshr_misses::total        121882                       # number of CleanEvict MSHR misses
system.l2.CleanEvict_mshr_miss_rate::.writebacks          inf                       # mshr miss rate for CleanEvict accesses
system.l2.CleanEvict_mshr_miss_rate::total          inf                       # mshr miss rate for CleanEvict accesses
system.l2.ReadExReq_hits::.switch_cpus.data            3                       # number of ReadExReq hits
system.l2.ReadExReq_hits::total                     3                       # number of ReadExReq hits
system.l2.ReadExReq_misses::.switch_cpus.data       125939                       # number of ReadExReq misses
system.l2.ReadExReq_misses::total              125939                       # number of ReadExReq misses
system.l2.ReadExReq_miss_latency::.switch_cpus.data   9935610500                       # number of ReadExReq miss cycles
system.l2.ReadExReq_miss_latency::total    9935610500                       # number of ReadExReq miss cycles
system.l2.ReadExReq_accesses::.switch_cpus.data       125942                       # number of ReadExReq accesses(hits+misses)
system.l2.ReadExReq_accesses::total            125942                       # number of ReadExReq accesses(hits+misses)
system.l2.ReadExReq_miss_rate::.switch_cpus.data     0.999976                       # miss rate for ReadExReq accesses
system.l2.ReadExReq_miss_rate::total         0.999976                       # miss rate for ReadExReq accesses
system.l2.ReadExReq_avg_miss_latency::.switch_cpus.data 78892.245452                       # average ReadExReq miss latency
system.l2.ReadExReq_avg_miss_latency::total 78892.245452                       # average ReadExReq miss latency
system.l2.ReadExReq_mshr_misses::.switch_cpus.data       125939                       # number of ReadExReq MSHR misses
system.l2.ReadExReq_mshr_misses::total         125939                       # number of ReadExReq MSHR misses
system.l2.ReadExReq_mshr_miss_latency::.switch_cpus.data   8676220500                       # number of ReadExReq MSHR miss cycles
system.l2.ReadExReq_mshr_miss_latency::total   8676220500                       # number of ReadExReq MSHR miss cycles
system.l2.ReadExReq_mshr_miss_rate::.switch_cpus.data     0.999976                       # mshr miss rate for ReadExReq accesses
system.l2.ReadExReq_mshr_miss_rate::total     0.999976                       # mshr miss rate for ReadExReq accesses
system.l2.ReadExReq_avg_mshr_miss_latency::.switch_cpus.data 68892.245452                       # average ReadExReq mshr miss latency
system.l2.ReadExReq_avg_mshr_miss_latency::total 68892.245452                       # average ReadExReq mshr miss latency
system.l2.ReadCleanReq_hits::.switch_cpus.inst          556                       # number of ReadCleanReq hits
system.l2.ReadCleanReq_hits::total                556                       # number of ReadCleanReq hits
system.l2.ReadCleanReq_misses::.cpu.inst            2                       # number of ReadCleanReq misses
system.l2.ReadCleanReq_misses::.switch_cpus.inst          401                       # number of ReadCleanReq misses
system.l2.ReadCleanReq_misses::total              403                       # number of ReadCleanReq misses
system.l2.ReadCleanReq_miss_latency::.switch_cpus.inst     34533000                       # number of ReadCleanReq miss cycles
system.l2.ReadCleanReq_miss_latency::total     34533000                       # number of ReadCleanReq miss cycles
system.l2.ReadCleanReq_accesses::.cpu.inst            2                       # number of ReadCleanReq accesses(hits+misses)
system.l2.ReadCleanReq_accesses::.switch_cpus.inst          957                       # number of ReadCleanReq accesses(hits+misses)
system.l2.ReadCleanReq_accesses::total            959                       # number of ReadCleanReq accesses(hits+misses)
system.l2.ReadCleanReq_miss_rate::.cpu.inst            1                       # miss rate for ReadCleanReq accesses
system.l2.ReadCleanReq_miss_rate::.switch_cpus.inst     0.419018                       # miss rate for ReadCleanReq accesses
system.l2.ReadCleanReq_miss_rate::total      0.420229                       # miss rate for ReadCleanReq accesses
system.l2.ReadCleanReq_avg_miss_latency::.switch_cpus.inst 86117.206983                       # average ReadCleanReq miss latency
system.l2.ReadCleanReq_avg_miss_latency::total 85689.826303                       # average ReadCleanReq miss latency
[...]
system.cpu.itb_walker_cache.tags.tag_accesses            0                       # Number of tag accesses
system.cpu.itb_walker_cache.tags.data_accesses            0                       # Number of data accesses
system.cpu.itb.walker.pwrStateResidencyTicks::UNDEFINED 1806190815000                       # Cumulative time (in ticks) in various power states
system.cpu.dtb_walker_cache.pwrStateResidencyTicks::UNDEFINED 1806190815000                       # Cumulative time (in ticks) in various power states
system.cpu.dtb_walker_cache.blocked_cycles::no_mshrs            0                       # number of cycles access was blocked
system.cpu.dtb_walker_cache.blocked_cycles::no_targets            0                       # number of cycles access was blocked
system.cpu.dtb_walker_cache.blocked::no_mshrs            0                       # number of cycles access was blocked
system.cpu.dtb_walker_cache.blocked::no_targets            0                       # number of cycles access was blocked
system.cpu.dtb_walker_cache.avg_blocked_cycles::no_mshrs          nan                       # average number of cycles each access was blocked
system.cpu.dtb_walker_cache.avg_blocked_cycles::no_targets          nan                       # average number of cycles each access was blocked
system.cpu.dtb_walker_cache.replacements            0                       # number of replacements
system.cpu.dtb_walker_cache.tags.pwrStateResidencyTicks::UNDEFINED 1806190815000                       # Cumulative time (in ticks) in various power states
system.cpu.dtb_walker_cache.tags.tagsinuse            0                       # Cycle average of tags in use
system.cpu.dtb_walker_cache.tags.total_refs            0                       # Total number of references to valid blocks.
system.cpu.dtb_walker_cache.tags.sampled_refs            0                       # Sample count of references to valid blocks.
system.cpu.dtb_walker_cache.tags.avg_refs          nan                       # Average number of references to valid blocks.
system.cpu.dtb_walker_cache.tags.warmup_cycle            0                       # Cycle when the warmup percentage was hit.
system.cpu.dtb_walker_cache.tags.tag_accesses            0                       # Number of tag accesses
system.cpu.dtb_walker_cache.tags.data_accesses            0                       # Number of data accesses
system.cpu.dcache.pwrStateResidencyTicks::UNDEFINED 1806190815000                       # Cumulative time (in ticks) in various power states
system.cpu.dcache.demand_hits::.cpu.data            1                       # number of demand (read+write) hits
system.cpu.dcache.demand_hits::.switch_cpus.data     39417964                       # number of demand (read+write) hits
system.cpu.dcache.demand_hits::total         39417965                       # number of demand (read+write) hits
system.cpu.dcache.overall_hits::.cpu.data            1                       # number of overall hits
system.cpu.dcache.overall_hits::.switch_cpus.data     41237588                       # number of overall hits
system.cpu.dcache.overall_hits::total        41237589                       # number of overall hits
system.cpu.dcache.demand_misses::.cpu.data            2                       # number of demand (read+write) misses
system.cpu.dcache.demand_misses::.switch_cpus.data      1403662                       # number of demand (read+write) misses
system.cpu.dcache.demand_misses::total        1403664                       # number of demand (read+write) misses
system.cpu.dcache.overall_misses::.cpu.data            2                       # number of overall misses
system.cpu.dcache.overall_misses::.switch_cpus.data      1526172                       # number of overall misses
system.cpu.dcache.overall_misses::total       1526174                       # number of overall misses
system.cpu.dcache.demand_miss_latency::.switch_cpus.data 108718287594                       # number of demand (read+write) miss cycles
system.cpu.dcache.demand_miss_latency::total 108718287594                       # number of demand (read+write) miss cycles
system.cpu.dcache.overall_miss_latency::.switch_cpus.data 108718287594                       # number of overall miss cycles
system.cpu.dcache.overall_miss_latency::total 108718287594                       # number of overall miss cycles
system.cpu.dcache.demand_accesses::.cpu.data            3                       # number of demand (read+write) accesses
system.cpu.dcache.demand_accesses::.switch_cpus.data     40821626                       # number of demand (read+write) accesses
system.cpu.dcache.demand_accesses::total     40821629                       # number of demand (read+write) accesses
system.cpu.dcache.overall_accesses::.cpu.data            3                       # number of overall (read+write) accesses
system.cpu.dcache.overall_accesses::.switch_cpus.data     42763760                       # number of overall (read+write) accesses
system.cpu.dcache.overall_accesses::total     42763763                       # number of overall (read+write) accesses
system.cpu.dcache.demand_miss_rate::.cpu.data     0.666667                       # miss rate for demand accesses
system.cpu.dcache.demand_miss_rate::.switch_cpus.data     0.034385                       # miss rate for demand accesses
system.cpu.dcache.demand_miss_rate::total     0.034385                       # miss rate for demand accesses
system.cpu.dcache.overall_miss_rate::.cpu.data     0.666667                       # miss rate for overall accesses
system.cpu.dcache.overall_miss_rate::.switch_cpus.data     0.035688                       # miss rate for overall accesses
system.cpu.dcache.overall_miss_rate::total     0.035688                       # miss rate for overall accesses
system.cpu.dcache.demand_avg_miss_latency::.switch_cpus.data 77453.323944                       # average overall miss latency
system.cpu.dcache.demand_avg_miss_latency::total 77453.213585                       # average overall miss latency
system.cpu.dcache.overall_avg_miss_latency::.switch_cpus.data 71235.933823                       # average overall miss latency
system.cpu.dcache.overall_avg_miss_latency::total 71235.840470                       # average overall miss latency
system.cpu.dcache.blocked_cycles::no_mshrs      9596172                       # number of cycles access was blocked
system.cpu.dcache.blocked_cycles::no_targets        19732                       # number of cycles access was blocked
system.cpu.dcache.blocked::no_mshrs            106849                       # number of cycles access was blocked
system.cpu.dcache.blocked::no_targets             318                       # number of cycles access was blocked
system.cpu.dcache.avg_blocked_cycles::no_mshrs    89.810593                       # average number of cycles each access was blocked
system.cpu.dcache.avg_blocked_cycles::no_targets    62.050314                       # average number of cycles each access was blocked
system.cpu.dcache.writebacks::.writebacks       312943                       # number of writebacks
system.cpu.dcache.writebacks::total            312943                       # number of writebacks
system.cpu.dcache.demand_mshr_hits::.switch_cpus.data       772380                       # number of demand (read+write) MSHR hits
system.cpu.dcache.demand_mshr_hits::total       772380                       # number of demand (read+write) MSHR hits
system.cpu.dcache.overall_mshr_hits::.switch_cpus.data       772380                       # number of overall MSHR hits
system.cpu.dcache.overall_mshr_hits::total       772380                       # number of overall MSHR hits
system.cpu.dcache.demand_mshr_misses::.switch_cpus.data       631282                       # number of demand (read+write) MSHR misses
system.cpu.dcache.demand_mshr_misses::total       631282                       # number of demand (read+write) MSHR misses
system.cpu.dcache.overall_mshr_misses::.switch_cpus.data       692798                       # number of overall MSHR misses
system.cpu.dcache.overall_mshr_misses::total       692798                       # number of overall MSHR misses
system.cpu.dcache.demand_mshr_miss_latency::.switch_cpus.data  53945462094                       # number of demand (read+write) MSHR miss cycles
system.cpu.dcache.demand_mshr_miss_latency::total  53945462094                       # number of demand (read+write) MSHR miss cycles
system.cpu.dcache.overall_mshr_miss_latency::.switch_cpus.data  59516312594                       # number of overall MSHR miss cycles
system.cpu.dcache.overall_mshr_miss_latency::total  59516312594                       # number of overall MSHR miss cycles
system.cpu.dcache.demand_mshr_miss_rate::.switch_cpus.data     0.015464                       # mshr miss rate for demand accesses
system.cpu.dcache.demand_mshr_miss_rate::total     0.015464                       # mshr miss rate for demand accesses
system.cpu.dcache.overall_mshr_miss_rate::.switch_cpus.data     0.016201                       # mshr miss rate for overall accesses
system.cpu.dcache.overall_mshr_miss_rate::total     0.016201                       # mshr miss rate for overall accesses
system.cpu.dcache.demand_avg_mshr_miss_latency::.switch_cpus.data 85453.825856                       # average overall mshr miss latency
system.cpu.dcache.demand_avg_mshr_miss_latency::total 85453.825856                       # average overall mshr miss latency
system.cpu.dcache.overall_avg_mshr_miss_latency::.switch_cpus.data 85907.165716                       # average overall mshr miss latency
system.cpu.dcache.overall_avg_mshr_miss_latency::total 85907.165716                       # average overall mshr miss latency
system.cpu.dcache.replacements                 691775                       # number of replacements
system.cpu.dcache.ReadReq_hits::.cpu.data            1                       # number of ReadReq hits
system.cpu.dcache.ReadReq_hits::.switch_cpus.data     30912037                       # number of ReadReq hits
system.cpu.dcache.ReadReq_hits::total        30912038                       # number of ReadReq hits
system.cpu.dcache.ReadReq_misses::.cpu.data            2                       # number of ReadReq misses
system.cpu.dcache.ReadReq_misses::.switch_cpus.data      1114796                       # number of ReadReq misses
system.cpu.dcache.ReadReq_misses::total       1114798                       # number of ReadReq misses
system.cpu.dcache.ReadReq_miss_latency::.switch_cpus.data  84319459500                       # number of ReadReq miss cycles
system.cpu.dcache.ReadReq_miss_latency::total  84319459500                       # number of ReadReq miss cycles
system.cpu.dcache.ReadReq_accesses::.cpu.data            3                       # number of ReadReq accesses(hits+misses)
system.cpu.dcache.ReadReq_accesses::.switch_cpus.data     32026833                       # number of ReadReq accesses(hits+misses)
system.cpu.dcache.ReadReq_accesses::total     32026836                       # number of ReadReq accesses(hits+misses)
system.cpu.dcache.ReadReq_miss_rate::.cpu.data     0.666667                       # miss rate for ReadReq accesses
system.cpu.dcache.ReadReq_miss_rate::.switch_cpus.data     0.034808                       # miss rate for ReadReq accesses
system.cpu.dcache.ReadReq_miss_rate::total     0.034808                       # miss rate for ReadReq accesses
system.cpu.dcache.ReadReq_avg_miss_latency::.switch_cpus.data 75636.672091                       # average ReadReq miss latency
system.cpu.dcache.ReadReq_avg_miss_latency::total 75636.536395                       # average ReadReq miss latency
system.cpu.dcache.ReadReq_mshr_hits::.switch_cpus.data       772305                       # number of ReadReq MSHR hits
system.cpu.dcache.ReadReq_mshr_hits::total       772305                       # number of ReadReq MSHR hits
system.cpu.dcache.ReadReq_mshr_misses::.switch_cpus.data       342491                       # number of ReadReq MSHR misses
system.cpu.dcache.ReadReq_mshr_misses::total       342491                       # number of ReadReq MSHR misses
system.cpu.dcache.ReadReq_mshr_miss_latency::.switch_cpus.data  29836524500                       # number of ReadReq MSHR miss cycles
system.cpu.dcache.ReadReq_mshr_miss_latency::total  29836524500                       # number of ReadReq MSHR miss cycles
system.cpu.dcache.ReadReq_mshr_miss_rate::.switch_cpus.data     0.010694                       # mshr miss rate for ReadReq accesses
system.cpu.dcache.ReadReq_mshr_miss_rate::total     0.010694                       # mshr miss rate for ReadReq accesses
system.cpu.dcache.ReadReq_avg_mshr_miss_latency::.switch_cpus.data 87116.229332                       # average ReadReq mshr miss latency
system.cpu.dcache.ReadReq_avg_mshr_miss_latency::total 87116.229332                       # average ReadReq mshr miss latency
system.cpu.dcache.WriteReq_hits::.switch_cpus.data      8505927                       # number of WriteReq hits
system.cpu.dcache.WriteReq_hits::total        8505927                       # number of WriteReq hits
system.cpu.dcache.WriteReq_misses::.switch_cpus.data       288866                       # number of WriteReq misses
system.cpu.dcache.WriteReq_misses::total       288866                       # number of WriteReq misses
system.cpu.dcache.WriteReq_miss_latency::.switch_cpus.data  24398828094                       # number of WriteReq miss cycles
system.cpu.dcache.WriteReq_miss_latency::total  24398828094                       # number of WriteReq miss cycles
system.cpu.dcache.WriteReq_accesses::.switch_cpus.data      8794793                       # number of WriteReq accesses(hits+misses)
system.cpu.dcache.WriteReq_accesses::total      8794793                       # number of WriteReq accesses(hits+misses)
system.cpu.dcache.WriteReq_miss_rate::.switch_cpus.data     0.032845                       # miss rate for WriteReq accesses
system.cpu.dcache.WriteReq_miss_rate::total     0.032845                       # miss rate for WriteReq accesses
system.cpu.dcache.WriteReq_avg_miss_latency::.switch_cpus.data 84464.174025                       # average WriteReq miss latency
system.cpu.dcache.WriteReq_avg_miss_latency::total 84464.174025                       # average WriteReq miss latency
system.cpu.dcache.WriteReq_mshr_hits::.switch_cpus.data           75                       # number of WriteReq MSHR hits
system.cpu.dcache.WriteReq_mshr_hits::total           75                       # number of WriteReq MSHR hits
system.cpu.dcache.WriteReq_mshr_misses::.switch_cpus.data       288791                       # number of WriteReq MSHR misses
system.cpu.dcache.WriteReq_mshr_misses::total       288791                       # number of WriteReq MSHR misses
system.cpu.dcache.WriteReq_mshr_miss_latency::.switch_cpus.data  24108937594                       # number of WriteReq MSHR miss cycles
system.cpu.dcache.WriteReq_mshr_miss_latency::total  24108937594                       # number of WriteReq MSHR miss cycles
system.cpu.dcache.WriteReq_mshr_miss_rate::.switch_cpus.data     0.032837                       # mshr miss rate for WriteReq accesses
system.cpu.dcache.WriteReq_mshr_miss_rate::total     0.032837                       # mshr miss rate for WriteReq accesses
system.cpu.dcache.WriteReq_avg_mshr_miss_latency::.switch_cpus.data 83482.302406                       # average WriteReq mshr miss latency
system.cpu.dcache.WriteReq_avg_mshr_miss_latency::total 83482.302406                       # average WriteReq mshr miss latency
system.cpu.dcache.SoftPFReq_hits::.switch_cpus.data      1819624                       # number of SoftPFReq hits
system.cpu.dcache.SoftPFReq_hits::total       1819624                       # number of SoftPFReq hits
system.cpu.dcache.SoftPFReq_misses::.switch_cpus.data       122510                       # number of SoftPFReq misses
system.cpu.dcache.SoftPFReq_misses::total       122510                       # number of SoftPFReq misses
system.cpu.dcache.SoftPFReq_accesses::.switch_cpus.data      1942134                       # number of SoftPFReq accesses(hits+misses)
system.cpu.dcache.SoftPFReq_accesses::total      1942134                       # number of SoftPFReq accesses(hits+misses)
system.cpu.dcache.SoftPFReq_miss_rate::.switch_cpus.data     0.063080                       # miss rate for SoftPFReq accesses
system.cpu.dcache.SoftPFReq_miss_rate::total     0.063080                       # miss rate for SoftPFReq accesses
system.cpu.dcache.SoftPFReq_mshr_misses::.switch_cpus.data        61516                       # number of SoftPFReq MSHR misses
system.cpu.dcache.SoftPFReq_mshr_misses::total        61516                       # number of SoftPFReq MSHR misses
system.cpu.dcache.SoftPFReq_mshr_miss_latency::.switch_cpus.data   5570850500                       # number of SoftPFReq MSHR miss cycles
system.cpu.dcache.SoftPFReq_mshr_miss_latency::total   5570850500                       # number of SoftPFReq MSHR miss cycles
system.cpu.dcache.SoftPFReq_mshr_miss_rate::.switch_cpus.data     0.031674                       # mshr miss rate for SoftPFReq accesses
system.cpu.dcache.SoftPFReq_mshr_miss_rate::total     0.031674                       # mshr miss rate for SoftPFReq accesses
system.cpu.dcache.SoftPFReq_avg_mshr_miss_latency::.switch_cpus.data 90559.374797                       # average SoftPFReq mshr miss latency
system.cpu.dcache.SoftPFReq_avg_mshr_miss_latency::total 90559.374797                       # average SoftPFReq mshr miss latency
system.cpu.dcache.tags.pwrStateResidencyTicks::UNDEFINED 1806190815000                       # Cumulative time (in ticks) in various power states
system.cpu.dcache.tags.tagsinuse            30.334912                       # Cycle average of tags in use
system.cpu.dcache.tags.total_refs            41930389                       # Total number of references to valid blocks.
system.cpu.dcache.tags.sampled_refs            692799                       # Sample count of references to valid blocks.
system.cpu.dcache.tags.avg_refs             60.523166                       # Average number of references to valid blocks.
system.cpu.dcache.tags.warmup_cycle      1752622860500                       # Cycle when the warmup percentage was hit.
system.cpu.dcache.tags.occ_blocks::.cpu.data     0.002234                       # Average occupied blocks per requestor
system.cpu.dcache.tags.occ_blocks::.switch_cpus.data    30.332678                       # Average occupied blocks per requestor
system.cpu.dcache.tags.occ_percent::.cpu.data     0.000002                       # Average percentage of cache occupancy
system.cpu.dcache.tags.occ_percent::.switch_cpus.data     0.029622                       # Average percentage of cache occupancy
system.cpu.dcache.tags.occ_percent::total     0.029624                       # Average percentage of cache occupancy
system.cpu.dcache.tags.occ_task_id_blocks::1024         1024                       # Occupied blocks per task id
system.cpu.dcache.tags.age_task_id_blocks_1024::0          124                       # Occupied blocks per task id
system.cpu.dcache.tags.age_task_id_blocks_1024::1          761                       # Occupied blocks per task id
system.cpu.dcache.tags.age_task_id_blocks_1024::2          125                       # Occupied blocks per task id
system.cpu.dcache.tags.age_task_id_blocks_1024::3           14                       # Occupied blocks per task id
system.cpu.dcache.tags.occ_task_id_percent::1024            1                       # Percentage of cache occupancy per task id
system.cpu.dcache.tags.tag_accesses          86220325                       # Number of tag accesses
system.cpu.dcache.tags.data_accesses         86220325                       # Number of data accesses

---------- End Simulation Statistics   ----------
