
---------- Begin Simulation Statistics ----------
final_tick                               359103927313500                       # Number of ticks from beginning of simulation (restored from checkpoints and never reset)
host_inst_rate                                  47670                       # Simulator instruction rate (inst/s)
host_mem_usage                                 805808                       # Number of bytes of host memory used
host_op_rate                                    80449                       # Simulator op (including micro ops) rate (op/s)
host_seconds                                   209.78                       # Real time elapsed on the host
host_tick_rate                               44902541                       # Simulator tick rate (ticks/s)
sim_freq                                 1000000000000                       # Frequency of simulated ticks
sim_insts                                    10000009                       # Number of instructions simulated
sim_ops                                      16876344                       # Number of ops (including micro ops) simulated
sim_seconds                                  0.009419                       # Number of seconds simulated
sim_ticks                                  9419473500                       # Number of ticks simulated
system.cpu.Branches                                 1                       # Number of branches fetched
system.cpu.committedInsts                           8                       # Number of instructions committed
system.cpu.committedOps                            16                       # Number of ops (including micro ops) committed
system.cpu.dtb.rdAccesses                           4                       # TLB accesses on read requests
system.cpu.dtb.rdMisses                             0                       # TLB misses on read requests
system.cpu.dtb.wrAccesses                           0                       # TLB accesses on write requests
system.cpu.dtb.wrMisses                             0                       # TLB misses on write requests
system.cpu.idle_fraction                            0                       # Percentage of idle cycles
system.cpu.itb.rdAccesses                           0                       # TLB accesses on read requests
system.cpu.itb.rdMisses                             0                       # TLB misses on read requests
system.cpu.itb.wrAccesses                          12                       # TLB accesses on write requests
system.cpu.itb.wrMisses                             0                       # TLB misses on write requests
system.cpu.not_idle_fraction                        1                       # Percentage of non-idle cycles
system.cpu.numCycles                               20                       # number of cpu cycles simulated
system.cpu.numWorkItemsCompleted                    0                       # number of work items this cpu completed
system.cpu.numWorkItemsStarted                      0                       # number of work items this cpu started
system.cpu.num_busy_cycles                         20                       # Number of busy cycles
system.cpu.num_cc_register_reads                    5                       # number of times the CC registers were read
system.cpu.num_conditional_control_insts            1                       # number of instructions that are conditional controls
system.cpu.num_fp_alu_accesses                     13                       # Number of float alu accesses
system.cpu.num_fp_insts                            13                       # number of float instructions
system.cpu.num_fp_register_reads                   20                       # number of times the floating registers were read
system.cpu.num_fp_register_writes                  13                       # number of times the floating registers were written
system.cpu.num_func_calls                           0                       # number of times a function call or return occured
system.cpu.num_idle_cycles                          0                       # Number of idle cycles
system.cpu.num_int_alu_accesses                     6                       # Number of integer alu accesses
system.cpu.num_int_insts                            6                       # number of integer instructions
system.cpu.num_int_register_reads                  13                       # number of times the integer registers were read
system.cpu.num_int_register_writes                  2                       # number of times the integer registers were written
system.cpu.num_load_insts                           3                       # Number of load instructions
system.cpu.num_mem_refs                             3                       # number of memory refs
system.cpu.num_store_insts                          0                       # Number of store instructions
system.cpu.num_vec_alu_accesses                     0                       # Number of vector alu accesses
system.cpu.num_vec_insts                            0                       # number of vector instructions
system.cpu.num_vec_register_reads                   0                       # number of times the vector registers were read
system.cpu.num_vec_register_writes                  0                       # number of times the vector registers were written
system.cpu.op_class::No_OpClass                     0      0.00%      0.00% # Class of executed instruction
system.cpu.op_class::IntAlu                         5     31.25%     31.25% # Class of executed instruction
system.cpu.op_class::IntMult                        0      0.00%     31.25% # Class of executed instruction
system.cpu.op_class::IntDiv                         0      0.00%     31.25% # Class of executed instruction
system.cpu.op_class::FloatAdd                       2     12.50%     43.75% # Class of executed instruction
system.cpu.op_class::FloatCmp                       0      0.00%     43.75% # Class of executed instruction
system.cpu.op_class::FloatCvt                       0      0.00%     43.75% # Class of executed instruction
system.cpu.op_class::FloatMult                      0      0.00%     43.75% # Class of executed instruction
system.cpu.op_class::FloatMultAcc                   0      0.00%     43.75% # Class of executed instruction
system.cpu.op_class::FloatDiv                       0      0.00%     43.75% # Class of executed instruction
system.cpu.op_class::FloatMisc                      0      0.00%     43.75% # Class of executed instruction
system.cpu.op_class::FloatSqrt                      0      0.00%     43.75% # Class of executed instruction
system.cpu.op_class::SimdAdd                        0      0.00%     43.75% # Class of executed instruction
system.cpu.op_class::SimdAddAcc                     0      0.00%     43.75% # Class of executed instruction
system.cpu.op_class::SimdAlu                        2     12.50%     56.25% # Class of executed instruction
system.cpu.op_class::SimdCmp                        0      0.00%     56.25% # Class of executed instruction
system.cpu.op_class::SimdCvt                        0      0.00%     56.25% # Class of executed instruction
system.cpu.op_class::SimdMisc                       0      0.00%     56.25% # Class of executed instruction
system.cpu.op_class::SimdMult                       0      0.00%     56.25% # Class of executed instruction
system.cpu.op_class::SimdMultAcc                    0      0.00%     56.25% # Class of executed instruction
system.cpu.op_class::SimdShift                      0      0.00%     56.25% # Class of executed instruction
system.cpu.op_class::SimdShiftAcc                   0      0.00%     56.25% # Class of executed instruction
system.cpu.op_class::SimdDiv                        0      0.00%     56.25% # Class of executed instruction
system.cpu.op_class::SimdSqrt                       0      0.00%     56.25% # Class of executed instruction
system.cpu.op_class::SimdFloatAdd                   3     18.75%     75.00% # Class of executed instruction
system.cpu.op_class::SimdFloatAlu                   0      0.00%     75.00% # Class of executed instruction
system.cpu.op_class::SimdFloatCmp                   0      0.00%     75.00% # Class of executed instruction
system.cpu.op_class::SimdFloatCvt                   0      0.00%     75.00% # Class of executed instruction
system.cpu.op_class::SimdFloatDiv                   0      0.00%     75.00% # Class of executed instruction
system.cpu.op_class::SimdFloatMisc                  0      0.00%     75.00% # Class of executed instruction
system.cpu.op_class::SimdFloatMult                  1      6.25%     81.25% # Class of executed instruction
system.cpu.op_class::SimdFloatMultAcc               0      0.00%     81.25% # Class of executed instruction
system.cpu.op_class::SimdFloatSqrt                  0      0.00%     81.25% # Class of executed instruction
system.cpu.op_class::SimdReduceAdd                  0      0.00%     81.25% # Class of executed instruction
system.cpu.op_class::SimdReduceAlu                  0      0.00%     81.25% # Class of executed instruction
system.cpu.op_class::SimdReduceCmp                  0      0.00%     81.25% # Class of executed instruction
system.cpu.op_class::SimdFloatReduceAdd             0      0.00%     81.25% # Class of executed instruction
system.cpu.op_class::SimdFloatReduceCmp             0      0.00%     81.25% # Class of executed instruction
system.cpu.op_class::SimdAes                        0      0.00%     81.25% # Class of executed instruction
system.cpu.op_class::SimdAesMix                     0      0.00%     81.25% # Class of executed instruction
system.cpu.op_class::SimdSha1Hash                   0      0.00%     81.25% # Class of executed instruction
system.cpu.op_class::SimdSha1Hash2                  0      0.00%     81.25% # Class of executed instruction
system.cpu.op_class::SimdSha256Hash                 0      0.00%     81.25% # Class of executed instruction
system.cpu.op_class::SimdSha256Hash2                0      0.00%     81.25% # Class of executed instruction
system.cpu.op_class::SimdShaSigma2                  0      0.00%     81.25% # Class of executed instruction
system.cpu.op_class::SimdShaSigma3                  0      0.00%     81.25% # Class of executed instruction
system.cpu.op_class::SimdPredAlu                    0      0.00%     81.25% # Class of executed instruction
system.cpu.op_class::MemRead                        0      0.00%     81.25% # Class of executed instruction
system.cpu.op_class::MemWrite                       0      0.00%     81.25% # Class of executed instruction
system.cpu.op_class::FloatMemRead                   3     18.75%    100.00% # Class of executed instruction
system.cpu.op_class::FloatMemWrite                  0      0.00%    100.00% # Class of executed instruction
system.cpu.op_class::IprAccess                      0      0.00%    100.00% # Class of executed instruction
system.cpu.op_class::InstPrefetch                   0      0.00%    100.00% # Class of executed instruction
system.cpu.op_class::total                         16                       # Class of executed instruction
system.cpu.workload.numSyscalls                     0                       # Number of system calls
system.membus.snoop_filter.hit_multi_requests            0                       # Number of requests hitting in the snoop filter with multiple (>1) holders of the requested data.
system.membus.snoop_filter.hit_multi_snoops            0                       # Number of snoops hitting in the snoop filter with multiple (>1) holders of the requested data.
system.membus.snoop_filter.hit_single_requests       169270                       # Number of requests hitting in the snoop filter with a single holder of the requested data.
system.membus.snoop_filter.hit_single_snoops            0                       # Number of snoops hitting in the snoop filter with a single holder of the requested data.
system.membus.snoop_filter.tot_requests        343109                       # Total number of requests made to the snoop filter.
system.membus.snoop_filter.tot_snoops               0                       # Total number of snoops made to the snoop filter.
system.switch_cpus.branchPred.BTBCorrect            0                       # Number of correct BTB predictions (this stat may not work properly.
system.switch_cpus.branchPred.BTBHitPct      0.000000                       # BTB Hit Percentage
system.switch_cpus.branchPred.BTBHits               0                       # Number of BTB hits
system.switch_cpus.branchPred.BTBLookups      1357572                       # Number of BTB lookups
system.switch_cpus.branchPred.RASInCorrect           40                       # Number of incorrect RAS predictions.
system.switch_cpus.branchPred.condIncorrect        76653                       # Number of conditional branches incorrect
system.switch_cpus.branchPred.condPredicted      1401350                       # Number of conditional branches predicted
system.switch_cpus.branchPred.indirectHits      1017796                       # Number of indirect target hits.
system.switch_cpus.branchPred.indirectLookups      1357572                       # Number of indirect predictor lookups.
system.switch_cpus.branchPred.indirectMisses       339776                       # Number of indirect misses.
system.switch_cpus.branchPred.lookups         1502312                       # Number of BP lookups
system.switch_cpus.branchPred.usedRAS           49505                       # Number of times the RAS was used to get a target.
system.switch_cpus.branchPredindirectMispredicted        19552                       # Number of mispredicted indirect branches.
system.switch_cpus.cc_regfile_reads           6490040                       # number of cc regfile reads
system.switch_cpus.cc_regfile_writes          4460445                       # number of cc regfile writes
system.switch_cpus.commit.amos                      0                       # Number of atomic instructions committed
system.switch_cpus.commit.branchMispredicts        76738                       # The number of times a branch was mispredicted
system.switch_cpus.commit.branches            1049066                       # Number of branches committed
system.switch_cpus.commit.bw_lim_events       1450270                       # number cycles where commit BW limit reached
system.switch_cpus.commit.commitSquashedInsts      3066346                       # The number of squashed insts skipped by commit
system.switch_cpus.commit.committedInsts     10000001                       # Number of instructions committed
system.switch_cpus.commit.committedOps       16876328                       # Number of ops (including micro ops) committed
system.switch_cpus.commit.committed_per_cycle::samples     18349876                       # Number of insts commited each cycle
system.switch_cpus.commit.committed_per_cycle::mean     0.919697                       # Number of insts commited each cycle
system.switch_cpus.commit.committed_per_cycle::stdev     2.307932                       # Number of insts commited each cycle
system.switch_cpus.commit.committed_per_cycle::underflows            0      0.00%      0.00% # Number of insts commited each cycle
system.switch_cpus.commit.committed_per_cycle::0     14936222     81.40%     81.40% # Number of insts commited each cycle
system.switch_cpus.commit.committed_per_cycle::1       874514      4.77%     86.16% # Number of insts commited each cycle
system.switch_cpus.commit.committed_per_cycle::2       136799      0.75%     86.91% # Number of insts commited each cycle
system.switch_cpus.commit.committed_per_cycle::3       218354      1.19%     88.10% # Number of insts commited each cycle
system.switch_cpus.commit.committed_per_cycle::4       388188      2.12%     90.21% # Number of insts commited each cycle
system.switch_cpus.commit.committed_per_cycle::5       211270      1.15%     91.36% # Number of insts commited each cycle
system.switch_cpus.commit.committed_per_cycle::6        77921      0.42%     91.79% # Number of insts commited each cycle
system.switch_cpus.commit.committed_per_cycle::7        56338      0.31%     92.10% # Number of insts commited each cycle
system.switch_cpus.commit.committed_per_cycle::8      1450270      7.90%    100.00% # Number of insts commited each cycle
system.switch_cpus.commit.committed_per_cycle::overflows            0      0.00%    100.00% # Number of insts commited each cycle
system.switch_cpus.commit.committed_per_cycle::min_value            0                       # Number of insts commited each cycle
system.switch_cpus.commit.committed_per_cycle::max_value            8                       # Number of insts commited each cycle
system.switch_cpus.commit.committed_per_cycle::total     18349876                       # Number of insts commited each cycle
system.switch_cpus.commit.fp_insts            8713194                       # Number of committed floating point instructions.
system.switch_cpus.commit.function_calls        26226                       # Number of function calls committed.
system.switch_cpus.commit.int_insts          10019631                       # Number of committed integer instructions.
system.switch_cpus.commit.loads               2743170                       # Number of loads committed
system.switch_cpus.commit.membars                   0                       # Number of memory barriers committed
system.switch_cpus.commit.op_class_0::No_OpClass        27517      0.16%      0.16% # Class of committed instruction
system.switch_cpus.commit.op_class_0::IntAlu      7410720     43.91%     44.07% # Class of committed instruction
system.switch_cpus.commit.op_class_0::IntMult          119      0.00%     44.08% # Class of committed instruction
system.switch_cpus.commit.op_class_0::IntDiv           56      0.00%     44.08% # Class of committed instruction
system.switch_cpus.commit.op_class_0::FloatAdd       891416      5.28%     49.36% # Class of committed instruction
system.switch_cpus.commit.op_class_0::FloatCmp            0      0.00%     49.36% # Class of committed instruction
system.switch_cpus.commit.op_class_0::FloatCvt            0      0.00%     49.36% # Class of committed instruction
system.switch_cpus.commit.op_class_0::FloatMult            0      0.00%     49.36% # Class of committed instruction
system.switch_cpus.commit.op_class_0::FloatMultAcc            0      0.00%     49.36% # Class of committed instruction
system.switch_cpus.commit.op_class_0::FloatDiv            0      0.00%     49.36% # Class of committed instruction
system.switch_cpus.commit.op_class_0::FloatMisc            0      0.00%     49.36% # Class of committed instruction
system.switch_cpus.commit.op_class_0::FloatSqrt            0      0.00%     49.36% # Class of committed instruction
system.switch_cpus.commit.op_class_0::SimdAdd            0      0.00%     49.36% # Class of committed instruction
system.switch_cpus.commit.op_class_0::SimdAddAcc            0      0.00%     49.36% # Class of committed instruction
system.switch_cpus.commit.op_class_0::SimdAlu      1379320      8.17%     57.53% # Class of committed instruction
system.switch_cpus.commit.op_class_0::SimdCmp            0      0.00%     57.53% # Class of committed instruction
system.switch_cpus.commit.op_class_0::SimdCvt            4      0.00%     57.53% # Class of committed instruction
system.switch_cpus.commit.op_class_0::SimdMisc        34436      0.20%     57.74% # Class of committed instruction
system.switch_cpus.commit.op_class_0::SimdMult            0      0.00%     57.74% # Class of committed instruction
system.switch_cpus.commit.op_class_0::SimdMultAcc            0      0.00%     57.74% # Class of committed instruction
system.switch_cpus.commit.op_class_0::SimdShift            0      0.00%     57.74% # Class of committed instruction
system.switch_cpus.commit.op_class_0::SimdShiftAcc            0      0.00%     57.74% # Class of committed instruction
system.switch_cpus.commit.op_class_0::SimdDiv            0      0.00%     57.74% # Class of committed instruction
system.switch_cpus.commit.op_class_0::SimdSqrt            0      0.00%     57.74% # Class of committed instruction
system.switch_cpus.commit.op_class_0::SimdFloatAdd      1310530      7.77%     65.50% # Class of committed instruction
system.switch_cpus.commit.op_class_0::SimdFloatAlu            0      0.00%     65.50% # Class of committed instruction
system.switch_cpus.commit.op_class_0::SimdFloatCmp        15450      0.09%     65.59% # Class of committed instruction
system.switch_cpus.commit.op_class_0::SimdFloatCvt      1398264      8.29%     73.88% # Class of committed instruction
system.switch_cpus.commit.op_class_0::SimdFloatDiv            0      0.00%     73.88% # Class of committed instruction
system.switch_cpus.commit.op_class_0::SimdFloatMisc            0      0.00%     73.88% # Class of committed instruction
system.switch_cpus.commit.op_class_0::SimdFloatMult      1344926      7.97%     81.85% # Class of committed instruction
system.switch_cpus.commit.op_class_0::SimdFloatMultAcc            0      0.00%     81.85% # Class of committed instruction
system.switch_cpus.commit.op_class_0::SimdFloatSqrt            0      0.00%     81.85% # Class of committed instruction
system.switch_cpus.commit.op_class_0::SimdReduceAdd            0      0.00%     81.85% # Class of committed instruction
system.switch_cpus.commit.op_class_0::SimdReduceAlu            0      0.00%     81.85% # Class of committed instruction
system.switch_cpus.commit.op_class_0::SimdReduceCmp            0      0.00%     81.85% # Class of committed instruction
system.switch_cpus.commit.op_class_0::SimdFloatReduceAdd            0      0.00%     81.85% # Class of committed instruction
system.switch_cpus.commit.op_class_0::SimdFloatReduceCmp            0      0.00%     81.85% # Class of committed instruction
system.switch_cpus.commit.op_class_0::SimdAes            0      0.00%     81.85% # Class of committed instruction
system.switch_cpus.commit.op_class_0::SimdAesMix            0      0.00%     81.85% # Class of committed instruction
system.switch_cpus.commit.op_class_0::SimdSha1Hash            0      0.00%     81.85% # Class of committed instruction
system.switch_cpus.commit.op_class_0::SimdSha1Hash2            0      0.00%     81.85% # Class of committed instruction
system.switch_cpus.commit.op_class_0::SimdSha256Hash            0      0.00%     81.85% # Class of committed instruction
system.switch_cpus.commit.op_class_0::SimdSha256Hash2            0      0.00%     81.85% # Class of committed instruction
system.switch_cpus.commit.op_class_0::SimdShaSigma2            0      0.00%     81.85% # Class of committed instruction
system.switch_cpus.commit.op_class_0::SimdShaSigma3            0      0.00%     81.85% # Class of committed instruction
system.switch_cpus.commit.op_class_0::SimdPredAlu            0      0.00%     81.85% # Class of committed instruction
system.switch_cpus.commit.op_class_0::MemRead       937733      5.56%     87.40% # Class of committed instruction
system.switch_cpus.commit.op_class_0::MemWrite       275299      1.63%     89.03% # Class of committed instruction
system.switch_cpus.commit.op_class_0::FloatMemRead      1805437     10.70%     99.73% # Class of committed instruction
system.switch_cpus.commit.op_class_0::FloatMemWrite        45101      0.27%    100.00% # Class of committed instruction
system.switch_cpus.commit.op_class_0::IprAccess            0      0.00%    100.00% # Class of committed instruction
system.switch_cpus.commit.op_class_0::InstPrefetch            0      0.00%    100.00% # Class of committed instruction
system.switch_cpus.commit.op_class_0::total     16876328                       # Class of committed instruction
system.switch_cpus.commit.refs                3063570                       # Number of memory references committed
system.switch_cpus.commit.swp_count                 0                       # Number of s/w prefetches committed
system.switch_cpus.commit.vec_insts                 0                       # Number of committed Vector instructions.
system.switch_cpus.committedInsts            10000001                       # Number of Instructions Simulated
system.switch_cpus.committedOps              16876328                       # Number of Ops (including micro ops) Simulated
system.switch_cpus.cpi                       1.883893                       # CPI: Cycles Per Instruction
system.switch_cpus.cpi_total                 1.883893                       # CPI: Total CPI of All Threads
system.switch_cpus.decode.BlockedCycles      14536258                       # Number of cycles decode is blocked
system.switch_cpus.decode.DecodedInsts       20867810                       # Number of instructions handled by decode
system.switch_cpus.decode.IdleCycles          1184873                       # Number of cycles decode is idle
system.switch_cpus.decode.RunCycles           2160747                       # Number of cycles decode is running
system.switch_cpus.decode.SquashCycles          77008                       # Number of cycles decode is squashing
system.switch_cpus.decode.UnblockCycles        821830                       # Number of cycles decode is unblocking
system.switch_cpus.dtb.rdAccesses             3223002                       # TLB accesses on read requests
system.switch_cpus.dtb.rdMisses                 15617                       # TLB misses on read requests
system.switch_cpus.dtb.wrAccesses              368646                       # TLB accesses on write requests
system.switch_cpus.dtb.wrMisses                  1309                       # TLB misses on write requests
system.switch_cpus.fetch.Branches             1502312                       # Number of branches that fetch encountered
system.switch_cpus.fetch.CacheLines           1741618                       # Number of cache lines fetched
system.switch_cpus.fetch.Cycles              16894317                       # Number of cycles fetch has run and was not squashing or blocked
system.switch_cpus.fetch.IcacheSquashes         16797                       # Number of outstanding Icache misses that were squashed
system.switch_cpus.fetch.IcacheWaitRetryStallCycles           41                       # Number of stall cycles due to full MSHR
system.switch_cpus.fetch.Insts               13079957                       # Number of instructions fetch has processed
system.switch_cpus.fetch.MiscStallCycles           75                       # Number of cycles fetch has spent waiting on interrupts, or bad addresses, or out of MSHRs
system.switch_cpus.fetch.PendingTrapStallCycles         3606                       # Number of stall cycles due to pending traps
system.switch_cpus.fetch.SquashCycles          154016                       # Number of cycles fetch has spent squashing
system.switch_cpus.fetch.branchRate          0.079745                       # Number of branch fetches per cycle
system.switch_cpus.fetch.icacheStallCycles      1805673                       # Number of cycles fetch is stalled on an Icache miss
system.switch_cpus.fetch.predictedBranches      1067301                       # Number of branches that fetch has predicted taken
system.switch_cpus.fetch.rate                0.694305                       # Number of inst fetches per cycle
system.switch_cpus.fetch.rateDist::samples     18780720                       # Number of instructions fetched each cycle (Total)
system.switch_cpus.fetch.rateDist::mean      1.180403                       # Number of instructions fetched each cycle (Total)
system.switch_cpus.fetch.rateDist::stdev     2.586059                       # Number of instructions fetched each cycle (Total)
system.switch_cpus.fetch.rateDist::underflows            0      0.00%      0.00% # Number of instructions fetched each cycle (Total)
system.switch_cpus.fetch.rateDist::0         15021491     79.98%     79.98% # Number of instructions fetched each cycle (Total)
system.switch_cpus.fetch.rateDist::1           278350      1.48%     81.47% # Number of instructions fetched each cycle (Total)
system.switch_cpus.fetch.rateDist::2           211207      1.12%     82.59% # Number of instructions fetched each cycle (Total)
system.switch_cpus.fetch.rateDist::3           226456      1.21%     83.80% # Number of instructions fetched each cycle (Total)
system.switch_cpus.fetch.rateDist::4           322779      1.72%     85.51% # Number of instructions fetched each cycle (Total)
system.switch_cpus.fetch.rateDist::5           388645      2.07%     87.58% # Number of instructions fetched each cycle (Total)
system.switch_cpus.fetch.rateDist::6           495618      2.64%     90.22% # Number of instructions fetched each cycle (Total)
system.switch_cpus.fetch.rateDist::7           108752      0.58%     90.80% # Number of instructions fetched each cycle (Total)
system.switch_cpus.fetch.rateDist::8          1727422      9.20%    100.00% # Number of instructions fetched each cycle (Total)
system.switch_cpus.fetch.rateDist::overflows            0      0.00%    100.00% # Number of instructions fetched each cycle (Total)
system.switch_cpus.fetch.rateDist::min_value            0                       # Number of instructions fetched each cycle (Total)
system.switch_cpus.fetch.rateDist::max_value            8                       # Number of instructions fetched each cycle (Total)
system.switch_cpus.fetch.rateDist::total     18780720                       # Number of instructions fetched each cycle (Total)
system.switch_cpus.fp_regfile_reads          14834185                       # number of floating regfile reads
system.switch_cpus.fp_regfile_writes          8825494                       # number of floating regfile writes
system.switch_cpus.idleCycles                   58207                       # Total number of cycles that the CPU has spent unscheduled due to idling
system.switch_cpus.iew.branchMispredicts        86789                       # Number of branch mispredicts detected at execute
system.switch_cpus.iew.exec_branches          1167965                       # Number of branches executed
system.switch_cpus.iew.exec_nop                     0                       # number of nop insts executed
system.switch_cpus.iew.exec_rate             1.006296                       # Inst execution rate
system.switch_cpus.iew.exec_refs              3680546                       # number of memory reference insts executed
system.switch_cpus.iew.exec_stores             368575                       # Number of stores executed
system.switch_cpus.iew.exec_swp                     0                       # number of swp insts executed
system.switch_cpus.iew.iewBlockCycles         7779262                       # Number of cycles IEW is blocking
system.switch_cpus.iew.iewDispLoadInsts       3311427                       # Number of dispatched load instructions
system.switch_cpus.iew.iewDispNonSpecInsts           25                       # Number of dispatched non-speculative instructions
system.switch_cpus.iew.iewDispSquashedInsts         6758                       # Number of squashed instructions skipped by dispatch
system.switch_cpus.iew.iewDispStoreInsts       431340                       # Number of dispatched store instructions
system.switch_cpus.iew.iewDispatchedInsts     19939638                       # Number of instructions dispatched to IQ
system.switch_cpus.iew.iewExecLoadInsts       3311971                       # Number of load instructions executed
system.switch_cpus.iew.iewExecSquashedInsts       141570                       # Number of squashed instructions skipped in execute
system.switch_cpus.iew.iewExecutedInsts      18957528                       # Number of executed instructions
system.switch_cpus.iew.iewIQFullEvents          82598                       # Number of times the IQ has become full, causing a stall
system.switch_cpus.iew.iewIdleCycles                0                       # Number of cycles IEW is idle
system.switch_cpus.iew.iewLSQFullEvents        615780                       # Number of times the LSQ has become full, causing a stall
system.switch_cpus.iew.iewSquashCycles          77008                       # Number of cycles IEW is squashing
system.switch_cpus.iew.iewUnblockCycles        747109                       # Number of cycles IEW is unblocking
system.switch_cpus.iew.lsq.thread0.blockedLoads            0                       # Number of blocked loads due to partial load-store forwarding
system.switch_cpus.iew.lsq.thread0.cacheBlocked        29879                       # Number of times an access to memory failed due to the cache being blocked
system.switch_cpus.iew.lsq.thread0.forwLoads        55665                       # Number of loads that had data forwarded from stores
system.switch_cpus.iew.lsq.thread0.ignoredResponses          332                       # Number of memory responses ignored because the instruction is squashed
system.switch_cpus.iew.lsq.thread0.invAddrLoads            0                       # Number of loads ignored due to an invalid address
system.switch_cpus.iew.lsq.thread0.invAddrSwpfs            0                       # Number of software prefetches ignored due to an invalid address
system.switch_cpus.iew.lsq.thread0.memOrderViolation          344                       # Number of memory ordering violations
system.switch_cpus.iew.lsq.thread0.rescheduledLoads          190                       # Number of loads that were rescheduled
system.switch_cpus.iew.lsq.thread0.squashedLoads       568238                       # Number of loads squashed
system.switch_cpus.iew.lsq.thread0.squashedStores       110940                       # Number of stores squashed
system.switch_cpus.iew.memOrderViolationEvents          344                       # Number of memory order violations
system.switch_cpus.iew.predictedNotTakenIncorrect        29932                       # Number of branches that were predicted not taken incorrectly
system.switch_cpus.iew.predictedTakenIncorrect        56857                       # Number of branches that were predicted taken incorrectly
system.switch_cpus.iew.wb_consumers          24081709                       # num instructions consuming a value
system.switch_cpus.iew.wb_count              18639666                       # cumulative count of insts written-back
system.switch_cpus.iew.wb_fanout             0.596596                       # average fanout of values written-back
system.switch_cpus.iew.wb_producers          14367054                       # num instructions producing a value
system.switch_cpus.iew.wb_rate               0.989423                       # insts written-back per cycle
system.switch_cpus.iew.wb_sent               18673522                       # cumulative count of insts sent to commit
system.switch_cpus.int_regfile_reads         17240507                       # number of integer regfile reads
system.switch_cpus.int_regfile_writes         8249420                       # number of integer regfile writes
system.switch_cpus.ipc                       0.530816                       # IPC: Instructions Per Cycle
system.switch_cpus.ipc_total                 0.530816                       # IPC: Total IPC of All Threads
system.switch_cpus.iq.FU_type_0::No_OpClass        38855      0.20%      0.20% # Type of FU issued
system.switch_cpus.iq.FU_type_0::IntAlu       8780263     45.97%     46.18% # Type of FU issued
system.switch_cpus.iq.FU_type_0::IntMult          212      0.00%     46.18% # Type of FU issued
system.switch_cpus.iq.FU_type_0::IntDiv            87      0.00%     46.18% # Type of FU issued
system.switch_cpus.iq.FU_type_0::FloatAdd       967401      5.07%     51.24% # Type of FU issued
system.switch_cpus.iq.FU_type_0::FloatCmp            0      0.00%     51.24% # Type of FU issued
system.switch_cpus.iq.FU_type_0::FloatCvt            0      0.00%     51.24% # Type of FU issued
system.switch_cpus.iq.FU_type_0::FloatMult            0      0.00%     51.24% # Type of FU issued
system.switch_cpus.iq.FU_type_0::FloatMultAcc            0      0.00%     51.24% # Type of FU issued
system.switch_cpus.iq.FU_type_0::FloatDiv            0      0.00%     51.24% # Type of FU issued
system.switch_cpus.iq.FU_type_0::FloatMisc            0      0.00%     51.24% # Type of FU issued
system.switch_cpus.iq.FU_type_0::FloatSqrt            0      0.00%     51.24% # Type of FU issued
system.switch_cpus.iq.FU_type_0::SimdAdd            0      0.00%     51.24% # Type of FU issued
system.switch_cpus.iq.FU_type_0::SimdAddAcc            0      0.00%     51.24% # Type of FU issued
system.switch_cpus.iq.FU_type_0::SimdAlu      1449337      7.59%     58.83% # Type of FU issued
system.switch_cpus.iq.FU_type_0::SimdCmp            0      0.00%     58.83% # Type of FU issued
system.switch_cpus.iq.FU_type_0::SimdCvt            8      0.00%     58.83% # Type of FU issued
system.switch_cpus.iq.FU_type_0::SimdMisc        35251      0.18%     59.02% # Type of FU issued
system.switch_cpus.iq.FU_type_0::SimdMult            0      0.00%     59.02% # Type of FU issued
system.switch_cpus.iq.FU_type_0::SimdMultAcc            0      0.00%     59.02% # Type of FU issued
system.switch_cpus.iq.FU_type_0::SimdShift            0      0.00%     59.02% # Type of FU issued
system.switch_cpus.iq.FU_type_0::SimdShiftAcc            0      0.00%     59.02% # Type of FU issued
system.switch_cpus.iq.FU_type_0::SimdDiv            0      0.00%     59.02% # Type of FU issued
system.switch_cpus.iq.FU_type_0::SimdSqrt            0      0.00%     59.02% # Type of FU issued
system.switch_cpus.iq.FU_type_0::SimdFloatAdd      1317263      6.90%     65.91% # Type of FU issued
system.switch_cpus.iq.FU_type_0::SimdFloatAlu            0      0.00%     65.91% # Type of FU issued
system.switch_cpus.iq.FU_type_0::SimdFloatCmp        15456      0.08%     65.99% # Type of FU issued
system.switch_cpus.iq.FU_type_0::SimdFloatCvt      1409035      7.38%     73.37% # Type of FU issued
system.switch_cpus.iq.FU_type_0::SimdFloatDiv            0      0.00%     73.37% # Type of FU issued
system.switch_cpus.iq.FU_type_0::SimdFloatMisc            0      0.00%     73.37% # Type of FU issued
system.switch_cpus.iq.FU_type_0::SimdFloatMult      1352259      7.08%     80.45% # Type of FU issued
system.switch_cpus.iq.FU_type_0::SimdFloatMultAcc            0      0.00%     80.45% # Type of FU issued
system.switch_cpus.iq.FU_type_0::SimdFloatSqrt            0      0.00%     80.45% # Type of FU issued
system.switch_cpus.iq.FU_type_0::SimdReduceAdd            0      0.00%     80.45% # Type of FU issued
system.switch_cpus.iq.FU_type_0::SimdReduceAlu            0      0.00%     80.45% # Type of FU issued
system.switch_cpus.iq.FU_type_0::SimdReduceCmp            0      0.00%     80.45% # Type of FU issued
system.switch_cpus.iq.FU_type_0::SimdFloatReduceAdd            0      0.00%     80.45% # Type of FU issued
system.switch_cpus.iq.FU_type_0::SimdFloatReduceCmp            0      0.00%     80.45% # Type of FU issued
system.switch_cpus.iq.FU_type_0::SimdAes            0      0.00%     80.45% # Type of FU issued
system.switch_cpus.iq.FU_type_0::SimdAesMix            0      0.00%     80.45% # Type of FU issued
system.switch_cpus.iq.FU_type_0::SimdSha1Hash            0      0.00%     80.45% # Type of FU issued
system.switch_cpus.iq.FU_type_0::SimdSha1Hash2            0      0.00%     80.45% # Type of FU issued
system.switch_cpus.iq.FU_type_0::SimdSha256Hash            0      0.00%     80.45% # Type of FU issued
system.switch_cpus.iq.FU_type_0::SimdSha256Hash2            0      0.00%     80.45% # Type of FU issued
system.switch_cpus.iq.FU_type_0::SimdShaSigma2            0      0.00%     80.45% # Type of FU issued
system.switch_cpus.iq.FU_type_0::SimdShaSigma3            0      0.00%     80.45% # Type of FU issued
system.switch_cpus.iq.FU_type_0::SimdPredAlu            0      0.00%     80.45% # Type of FU issued
system.switch_cpus.iq.FU_type_0::MemRead      1380444      7.23%     87.68% # Type of FU issued
system.switch_cpus.iq.FU_type_0::MemWrite       330605      1.73%     89.41% # Type of FU issued
system.switch_cpus.iq.FU_type_0::FloatMemRead      1976638     10.35%     99.76% # Type of FU issued
system.switch_cpus.iq.FU_type_0::FloatMemWrite        45986      0.24%    100.00% # Type of FU issued
system.switch_cpus.iq.FU_type_0::IprAccess            0      0.00%    100.00% # Type of FU issued
system.switch_cpus.iq.FU_type_0::InstPrefetch            0      0.00%    100.00% # Type of FU issued
system.switch_cpus.iq.FU_type_0::total       19099100                       # Type of FU issued
system.switch_cpus.iq.fp_alu_accesses         9280267                       # Number of floating point alu accesses
system.switch_cpus.iq.fp_inst_queue_reads     18356635                       # Number of floating instruction queue reads
system.switch_cpus.iq.fp_inst_queue_wakeup_accesses      8914015                       # Number of floating instruction queue wakeup accesses
system.switch_cpus.iq.fp_inst_queue_writes      9724107                       # Number of floating instruction queue writes
system.switch_cpus.iq.fu_busy_cnt              356062                       # FU busy when requested
system.switch_cpus.iq.fu_busy_rate           0.018643                       # FU busy rate (busy events/executed inst)
system.switch_cpus.iq.fu_full::No_OpClass            0      0.00%      0.00% # attempts to use FU when none available
system.switch_cpus.iq.fu_full::IntAlu          107989     30.33%     30.33% # attempts to use FU when none available
system.switch_cpus.iq.fu_full::IntMult              0      0.00%     30.33% # attempts to use FU when none available
system.switch_cpus.iq.fu_full::IntDiv               0      0.00%     30.33% # attempts to use FU when none available
system.switch_cpus.iq.fu_full::FloatAdd             0      0.00%     30.33% # attempts to use FU when none available
system.switch_cpus.iq.fu_full::FloatCmp             0      0.00%     30.33% # attempts to use FU when none available
system.switch_cpus.iq.fu_full::FloatCvt             0      0.00%     30.33% # attempts to use FU when none available
system.switch_cpus.iq.fu_full::FloatMult            0      0.00%     30.33% # attempts to use FU when none available
system.switch_cpus.iq.fu_full::FloatMultAcc            0      0.00%     30.33% # attempts to use FU when none available
system.switch_cpus.iq.fu_full::FloatDiv             0      0.00%     30.33% # attempts to use FU when none available
system.switch_cpus.iq.fu_full::FloatMisc            0      0.00%     30.33% # attempts to use FU when none available
system.switch_cpus.iq.fu_full::FloatSqrt            0      0.00%     30.33% # attempts to use FU when none available
system.switch_cpus.iq.fu_full::SimdAdd              0      0.00%     30.33% # attempts to use FU when none available
system.switch_cpus.iq.fu_full::SimdAddAcc            0      0.00%     30.33% # attempts to use FU when none available
system.switch_cpus.iq.fu_full::SimdAlu          61836     17.37%     47.70% # attempts to use FU when none available
system.switch_cpus.iq.fu_full::SimdCmp              0      0.00%     47.70% # attempts to use FU when none available
system.switch_cpus.iq.fu_full::SimdCvt              0      0.00%     47.70% # attempts to use FU when none available
system.switch_cpus.iq.fu_full::SimdMisc             0      0.00%     47.70% # attempts to use FU when none available
system.switch_cpus.iq.fu_full::SimdMult             0      0.00%     47.70% # attempts to use FU when none available
system.switch_cpus.iq.fu_full::SimdMultAcc            0      0.00%     47.70% # attempts to use FU when none available
system.switch_cpus.iq.fu_full::SimdShift            0      0.00%     47.70% # attempts to use FU when none available
system.switch_cpus.iq.fu_full::SimdShiftAcc            0      0.00%     47.70% # attempts to use FU when none available
system.switch_cpus.iq.fu_full::SimdDiv              0      0.00%     47.70% # attempts to use FU when none available
system.switch_cpus.iq.fu_full::SimdSqrt             0      0.00%     47.70% # attempts to use FU when none available
system.switch_cpus.iq.fu_full::SimdFloatAdd        84192     23.65%     71.34% # attempts to use FU when none available
system.switch_cpus.iq.fu_full::SimdFloatAlu            0      0.00%     71.34% # attempts to use FU when none available
system.switch_cpus.iq.fu_full::SimdFloatCmp            0      0.00%     71.34% # attempts to use FU when none available
system.switch_cpus.iq.fu_full::SimdFloatCvt        22942      6.44%     77.78% # attempts to use FU when none available
system.switch_cpus.iq.fu_full::SimdFloatDiv            0      0.00%     77.78% # attempts to use FU when none available
system.switch_cpus.iq.fu_full::SimdFloatMisc            0      0.00%     77.78% # attempts to use FU when none available
system.switch_cpus.iq.fu_full::SimdFloatMult         3260      0.92%     78.70% # attempts to use FU when none available
system.switch_cpus.iq.fu_full::SimdFloatMultAcc            0      0.00%     78.70% # attempts to use FU when none available
system.switch_cpus.iq.fu_full::SimdFloatSqrt            0      0.00%     78.70% # attempts to use FU when none available
system.switch_cpus.iq.fu_full::SimdReduceAdd            0      0.00%     78.70% # attempts to use FU when none available
system.switch_cpus.iq.fu_full::SimdReduceAlu            0      0.00%     78.70% # attempts to use FU when none available
system.switch_cpus.iq.fu_full::SimdReduceCmp            0      0.00%     78.70% # attempts to use FU when none available
system.switch_cpus.iq.fu_full::SimdFloatReduceAdd            0      0.00%     78.70% # attempts to use FU when none available
system.switch_cpus.iq.fu_full::SimdFloatReduceCmp            0      0.00%     78.70% # attempts to use FU when none available
system.switch_cpus.iq.fu_full::SimdAes              0      0.00%     78.70% # attempts to use FU when none available
system.switch_cpus.iq.fu_full::SimdAesMix            0      0.00%     78.70% # attempts to use FU when none available
system.switch_cpus.iq.fu_full::SimdSha1Hash            0      0.00%     78.70% # attempts to use FU when none available
system.switch_cpus.iq.fu_full::SimdSha1Hash2            0      0.00%     78.70% # attempts to use FU when none available
system.switch_cpus.iq.fu_full::SimdSha256Hash            0      0.00%     78.70% # attempts to use FU when none available
system.switch_cpus.iq.fu_full::SimdSha256Hash2            0      0.00%     78.70% # attempts to use FU when none available
system.switch_cpus.iq.fu_full::SimdShaSigma2            0      0.00%     78.70% # attempts to use FU when none available
system.switch_cpus.iq.fu_full::SimdShaSigma3            0      0.00%     78.70% # attempts to use FU when none available
system.switch_cpus.iq.fu_full::SimdPredAlu            0      0.00%     78.70% # attempts to use FU when none available
system.switch_cpus.iq.fu_full::MemRead          34139      9.59%     88.29% # attempts to use FU when none available
system.switch_cpus.iq.fu_full::MemWrite          6308      1.77%     90.06% # attempts to use FU when none available
system.switch_cpus.iq.fu_full::FloatMemRead        35297      9.91%     99.97% # attempts to use FU when none available
system.switch_cpus.iq.fu_full::FloatMemWrite           99      0.03%    100.00% # attempts to use FU when none available
system.switch_cpus.iq.fu_full::IprAccess            0      0.00%    100.00% # attempts to use FU when none available
system.switch_cpus.iq.fu_full::InstPrefetch            0      0.00%    100.00% # attempts to use FU when none available
system.switch_cpus.iq.int_alu_accesses       10136040                       # Number of integer alu accesses
system.switch_cpus.iq.int_inst_queue_reads     39030114                       # Number of integer instruction queue reads
system.switch_cpus.iq.int_inst_queue_wakeup_accesses      9725651                       # Number of integer instruction queue wakeup accesses
system.switch_cpus.iq.int_inst_queue_writes     13279031                       # Number of integer instruction queue writes
system.switch_cpus.iq.iqInstsAdded           19939563                       # Number of instructions added to the IQ (excludes non-spec)
system.switch_cpus.iq.iqInstsIssued          19099100                       # Number of instructions issued
system.switch_cpus.iq.iqNonSpecInstsAdded           75                       # Number of non-speculative instructions added to the IQ
system.switch_cpus.iq.iqSquashedInstsExamined      3063199                       # Number of squashed instructions iterated over during squash; mainly for profiling
system.switch_cpus.iq.iqSquashedInstsIssued        51769                       # Number of squashed instructions issued
system.switch_cpus.iq.iqSquashedNonSpecRemoved           75                       # Number of squashed non-spec instructions that were removed
system.switch_cpus.iq.iqSquashedOperandsExamined      4247897                       # Number of squashed operands that are examined and possibly removed from graph
system.switch_cpus.iq.issued_per_cycle::samples     18780720                       # Number of insts issued each cycle
system.switch_cpus.iq.issued_per_cycle::mean     1.016952                       # Number of insts issued each cycle
system.switch_cpus.iq.issued_per_cycle::stdev     1.897454                       # Number of insts issued each cycle
system.switch_cpus.iq.issued_per_cycle::underflows            0      0.00%      0.00% # Number of insts issued each cycle
system.switch_cpus.iq.issued_per_cycle::0     12948171     68.94%     68.94% # Number of insts issued each cycle
system.switch_cpus.iq.issued_per_cycle::1      1508263      8.03%     76.97% # Number of insts issued each cycle
system.switch_cpus.iq.issued_per_cycle::2      1066866      5.68%     82.66% # Number of insts issued each cycle
system.switch_cpus.iq.issued_per_cycle::3       903905      4.81%     87.47% # Number of insts issued each cycle
system.switch_cpus.iq.issued_per_cycle::4       786300      4.19%     91.66% # Number of insts issued each cycle
system.switch_cpus.iq.issued_per_cycle::5       560115      2.98%     94.64% # Number of insts issued each cycle
system.switch_cpus.iq.issued_per_cycle::6       474250      2.53%     97.16% # Number of insts issued each cycle
system.switch_cpus.iq.issued_per_cycle::7       308685      1.64%     98.81% # Number of insts issued each cycle
system.switch_cpus.iq.issued_per_cycle::8       224165      1.19%    100.00% # Number of insts issued each cycle
system.switch_cpus.iq.issued_per_cycle::overflows            0      0.00%    100.00% # Number of insts issued each cycle
system.switch_cpus.iq.issued_per_cycle::min_value            0                       # Number of insts issued each cycle
system.switch_cpus.iq.issued_per_cycle::max_value            8                       # Number of insts issued each cycle
system.switch_cpus.iq.issued_per_cycle::total     18780720                       # Number of insts issued each cycle
system.switch_cpus.iq.rate                   1.013810                       # Inst issue rate
system.switch_cpus.iq.vec_alu_accesses              0                       # Number of vector alu accesses
system.switch_cpus.iq.vec_inst_queue_reads            0                       # Number of vector instruction queue reads
system.switch_cpus.iq.vec_inst_queue_wakeup_accesses            0                       # Number of vector instruction queue wakeup accesses
system.switch_cpus.iq.vec_inst_queue_writes            0                       # Number of vector instruction queue writes
system.switch_cpus.itb.rdAccesses                   0                       # TLB accesses on read requests
system.switch_cpus.itb.rdMisses                     0                       # TLB misses on read requests
system.switch_cpus.itb.wrAccesses             1742011                       # TLB accesses on write requests
system.switch_cpus.itb.wrMisses                   430                       # TLB misses on write requests
system.switch_cpus.memDep0.conflictingLoads        58474                       # Number of conflicting loads.
system.switch_cpus.memDep0.conflictingStores        21345                       # Number of conflicting stores.
system.switch_cpus.memDep0.insertedLoads      3311427                       # Number of loads inserted to the mem dependence unit.
system.switch_cpus.memDep0.insertedStores       431340                       # Number of stores inserted to the mem dependence unit.
system.switch_cpus.misc_regfile_reads         6149445                       # number of misc regfile reads
system.switch_cpus.misc_regfile_writes              1                       # number of misc regfile writes
system.switch_cpus.numCycles                 18838927                       # number of cpu cycles simulated
system.switch_cpus.numWorkItemsCompleted            0                       # number of work items this cpu completed
system.switch_cpus.numWorkItemsStarted              0                       # number of work items this cpu started
system.switch_cpus.rename.BlockCycles        11850895                       # Number of cycles rename is blocking
system.switch_cpus.rename.CommittedMaps      19414366                       # Number of HB maps that are committed
system.switch_cpus.rename.IQFullEvents        1432008                       # Number of times rename has blocked due to IQ full
system.switch_cpus.rename.IdleCycles          1531170                       # Number of cycles rename is idle
system.switch_cpus.rename.LQFullEvents         597109                       # Number of times rename has blocked due to LQ full
system.switch_cpus.rename.ROBFullEvents        164588                       # Number of times rename has blocked due to ROB full
system.switch_cpus.rename.RenameLookups      49500409                       # Number of register rename lookups that rename has made
system.switch_cpus.rename.RenamedInsts       20503293                       # Number of instructions processed by rename
system.switch_cpus.rename.RenamedOperands     23755269                       # Number of destination operands rename has renamed
system.switch_cpus.rename.RunCycles           2577929                       # Number of cycles rename is running
system.switch_cpus.rename.SQFullEvents         450984                       # Number of times rename has blocked due to SQ full
system.switch_cpus.rename.SquashCycles          77008                       # Number of cycles rename is squashing
system.switch_cpus.rename.UnblockCycles       2743714                       # Number of cycles rename is unblocking
system.switch_cpus.rename.UndoneMaps          4340771                       # Number of HB maps that are undone due to squashing
system.switch_cpus.rename.fp_rename_lookups     15643643                       # Number of floating rename lookups
system.switch_cpus.rename.int_rename_lookups     19422412                       # Number of integer rename lookups
system.switch_cpus.rename.serializeStallCycles            0                       # count of cycles rename stalled for serializing inst
system.switch_cpus.rename.serializingInsts            0                       # count of serializing insts renamed
system.switch_cpus.rename.skidInsts           4336460                       # count of insts added to the skid buffer
system.switch_cpus.rename.tempSerializingInsts            0                       # count of temporary serializing insts renamed
system.switch_cpus.rob.rob_reads             36842280                       # The number of ROB reads
system.switch_cpus.rob.rob_writes            40317118                       # The number of ROB writes
system.switch_cpus.timesIdled                     630                       # Number of times that the entire CPU went into an idle state and unscheduled itself
system.tol2bus.snoop_filter.hit_multi_requests            0                       # Number of requests hitting in the snoop filter with multiple (>1) holders of the requested data.
system.tol2bus.snoop_filter.hit_multi_snoops            0                       # Number of snoops hitting in the snoop filter with multiple (>1) holders of the requested data.
system.tol2bus.snoop_filter.hit_single_requests       205710                       # Number of requests hitting in the snoop filter with a single holder of the requested data.
system.tol2bus.snoop_filter.hit_single_snoops        23765                       # Number of snoops hitting in the snoop filter with a single holder of the requested data.
system.tol2bus.snoop_filter.tot_requests       412907                       # Total number of requests made to the snoop filter.
system.tol2bus.snoop_filter.tot_snoops          23765                       # Total number of snoops made to the snoop filter.
system.membus.pwrStateResidencyTicks::UNDEFINED 359103927313500                       # Cumulative time (in ticks) in various power states
system.membus.trans_dist::ReadResp             165228                       # Transaction distribution
system.membus.trans_dist::WritebackDirty        16149                       # Transaction distribution
system.membus.trans_dist::CleanEvict           153121                       # Transaction distribution
system.membus.trans_dist::ReadExReq              8610                       # Transaction distribution
system.membus.trans_dist::ReadExResp             8610                       # Transaction distribution
system.membus.trans_dist::ReadSharedReq        165229                       # Transaction distribution
system.membus.pkt_count_system.l2.mem_side::system.mem_ctrls.port       516947                       # Packet count per connected master and slave (bytes)
system.membus.pkt_count_system.l2.mem_side::total       516947                       # Packet count per connected master and slave (bytes)
system.membus.pkt_count::total                 516947                       # Packet count per connected master and slave (bytes)
system.membus.pkt_size_system.l2.mem_side::system.mem_ctrls.port     12159168                       # Cumulative packet size per connected master and slave (bytes)
system.membus.pkt_size_system.l2.mem_side::total     12159168                       # Cumulative packet size per connected master and slave (bytes)
system.membus.pkt_size::total                12159168                       # Cumulative packet size per connected master and slave (bytes)
system.membus.snoops                                0                       # Total snoops (count)
system.membus.snoopTraffic                          0                       # Total snoop traffic (bytes)
system.membus.snoop_fanout::samples            173839                       # Request fanout histogram
system.membus.snoop_fanout::mean                    0                       # Request fanout histogram
system.membus.snoop_fanout::stdev                   0                       # Request fanout histogram
system.membus.snoop_fanout::underflows              0      0.00%      0.00% # Request fanout histogram
system.membus.snoop_fanout::0                  173839    100.00%    100.00% # Request fanout histogram
system.membus.snoop_fanout::1                       0      0.00%    100.00% # Request fanout histogram
system.membus.snoop_fanout::overflows               0      0.00%    100.00% # Request fanout histogram
system.membus.snoop_fanout::min_value               0                       # Request fanout histogram
system.membus.snoop_fanout::max_value               0                       # Request fanout histogram
system.membus.snoop_fanout::total              173839                       # Request fanout histogram
system.membus.reqLayer2.occupancy           443020500                       # Layer occupancy (ticks)
system.membus.reqLayer2.utilization               4.7                       # Layer utilization (%)
system.membus.respLayer1.occupancy          931620500                       # Layer occupancy (ticks)
system.membus.respLayer1.utilization              9.9                       # Layer utilization (%)
system.switch_cpus.pwrStateResidencyTicks::OFF   9419473500                       # Cumulative time (in ticks) in various power states
system.switch_cpus.dtb.walker.pwrStateResidencyTicks::UNDEFINED 359103927313500                       # Cumulative time (in ticks) in various power states
system.switch_cpus.itb.walker.pwrStateResidencyTicks::UNDEFINED 359103927313500                       # Cumulative time (in ticks) in various power states
system.tol2bus.pwrStateResidencyTicks::UNDEFINED 359103927313500                       # Cumulative time (in ticks) in various power states
system.tol2bus.trans_dist::ReadResp            197150                       # Transaction distribution
system.tol2bus.trans_dist::WritebackDirty        42071                       # Transaction distribution
system.tol2bus.trans_dist::WritebackClean          463                       # Transaction distribution
system.tol2bus.trans_dist::CleanEvict          336105                       # Transaction distribution
system.tol2bus.trans_dist::ReadExReq            10045                       # Transaction distribution
system.tol2bus.trans_dist::ReadExResp           10045                       # Transaction distribution
system.tol2bus.trans_dist::ReadCleanReq           924                       # Transaction distribution
system.tol2bus.trans_dist::ReadSharedReq       196228                       # Transaction distribution
system.tol2bus.pkt_count_system.cpu.icache.mem_side::system.l2.cpu_side         2311                       # Packet count per connected master and slave (bytes)
system.tol2bus.pkt_count_system.cpu.dcache.mem_side::system.l2.cpu_side       617791                       # Packet count per connected master and slave (bytes)
system.tol2bus.pkt_count::total                620102                       # Packet count per connected master and slave (bytes)
system.tol2bus.pkt_size_system.cpu.icache.mem_side::system.l2.cpu_side        88768                       # Cumulative packet size per connected master and slave (bytes)
system.tol2bus.pkt_size_system.cpu.dcache.mem_side::system.l2.cpu_side     14860352                       # Cumulative packet size per connected master and slave (bytes)
system.tol2bus.pkt_size::total               14949120                       # Cumulative packet size per connected master and slave (bytes)
system.tol2bus.snoops                          172929                       # Total snoops (count)
system.tol2bus.snoopTraffic                   1033536                       # Total snoop traffic (bytes)
system.tol2bus.snoop_fanout::samples           380126                       # Request fanout histogram
system.tol2bus.snoop_fanout::mean            0.062519                       # Request fanout histogram
system.tol2bus.snoop_fanout::stdev           0.242096                       # Request fanout histogram
system.tol2bus.snoop_fanout::underflows             0      0.00%      0.00% # Request fanout histogram
system.tol2bus.snoop_fanout::0                 356361     93.75%     93.75% # Request fanout histogram
system.tol2bus.snoop_fanout::1                  23765      6.25%    100.00% # Request fanout histogram
system.tol2bus.snoop_fanout::2                      0      0.00%    100.00% # Request fanout histogram
system.tol2bus.snoop_fanout::3                      0      0.00%    100.00% # Request fanout histogram
system.tol2bus.snoop_fanout::4                      0      0.00%    100.00% # Request fanout histogram
system.tol2bus.snoop_fanout::overflows              0      0.00%    100.00% # Request fanout histogram
system.tol2bus.snoop_fanout::min_value              0                       # Request fanout histogram
system.tol2bus.snoop_fanout::max_value              1                       # Request fanout histogram
system.tol2bus.snoop_fanout::total             380126                       # Request fanout histogram
system.tol2bus.reqLayer0.occupancy          232836000                       # Layer occupancy (ticks)
system.tol2bus.reqLayer0.utilization              2.5                       # Layer utilization (%)
system.tol2bus.respLayer1.occupancy         309402499                       # Layer occupancy (ticks)
system.tol2bus.respLayer1.utilization             3.3                       # Layer utilization (%)
system.tol2bus.respLayer0.occupancy           1384497                       # Layer occupancy (ticks)
system.tol2bus.respLayer0.utilization             0.0                       # Layer utilization (%)
system.voltage_domain.voltage                       1                       # Voltage in Volts
system.clk_domain.clock                          1000                       # Clock period in ticks
system.l2.pwrStateResidencyTicks::UNDEFINED 359103927313500                       # Cumulative time (in ticks) in various power states
system.l2.demand_hits::.switch_cpus.inst           68                       # number of demand (read+write) hits
system.l2.demand_hits::.switch_cpus.data        33289                       # number of demand (read+write) hits
system.l2.demand_hits::total                    33357                       # number of demand (read+write) hits
system.l2.overall_hits::.switch_cpus.inst           68                       # number of overall hits
system.l2.overall_hits::.switch_cpus.data        33289                       # number of overall hits
system.l2.overall_hits::total                   33357                       # number of overall hits
system.l2.demand_misses::.cpu.inst                  2                       # number of demand (read+write) misses
system.l2.demand_misses::.cpu.data                  3                       # number of demand (read+write) misses
system.l2.demand_misses::.switch_cpus.inst          854                       # number of demand (read+write) misses
system.l2.demand_misses::.switch_cpus.data       172981                       # number of demand (read+write) misses
system.l2.demand_misses::total                 173840                       # number of demand (read+write) misses
system.l2.overall_misses::.cpu.inst                 2                       # number of overall misses
system.l2.overall_misses::.cpu.data                 3                       # number of overall misses
system.l2.overall_misses::.switch_cpus.inst          854                       # number of overall misses
system.l2.overall_misses::.switch_cpus.data       172981                       # number of overall misses
system.l2.overall_misses::total                173840                       # number of overall misses
system.l2.demand_miss_latency::.switch_cpus.inst     71311000                       # number of demand (read+write) miss cycles
system.l2.demand_miss_latency::.switch_cpus.data  14526167000                       # number of demand (read+write) miss cycles
system.l2.demand_miss_latency::total      14597478000                       # number of demand (read+write) miss cycles
system.l2.overall_miss_latency::.switch_cpus.inst     71311000                       # number of overall miss cycles
system.l2.overall_miss_latency::.switch_cpus.data  14526167000                       # number of overall miss cycles
system.l2.overall_miss_latency::total     14597478000                       # number of overall miss cycles
system.l2.demand_accesses::.cpu.inst                2                       # number of demand (read+write) accesses
system.l2.demand_accesses::.cpu.data                3                       # number of demand (read+write) accesses
system.l2.demand_accesses::.switch_cpus.inst          922                       # number of demand (read+write) accesses
system.l2.demand_accesses::.switch_cpus.data       206270                       # number of demand (read+write) accesses
system.l2.demand_accesses::total               207197                       # number of demand (read+write) accesses
system.l2.overall_accesses::.cpu.inst               2                       # number of overall (read+write) accesses
system.l2.overall_accesses::.cpu.data               3                       # number of overall (read+write) accesses
system.l2.overall_accesses::.switch_cpus.inst          922                       # number of overall (read+write) accesses
system.l2.overall_accesses::.switch_cpus.data       206270                       # number of overall (read+write) accesses
system.l2.overall_accesses::total              207197                       # number of overall (read+write) accesses
system.l2.demand_miss_rate::.cpu.inst               1                       # miss rate for demand accesses
system.l2.demand_miss_rate::.cpu.data               1                       # miss rate for demand accesses
system.l2.demand_miss_rate::.switch_cpus.inst     0.926247                       # miss rate for demand accesses
system.l2.demand_miss_rate::.switch_cpus.data     0.838614                       # miss rate for demand accesses
system.l2.demand_miss_rate::total            0.839008                       # miss rate for demand accesses
system.l2.overall_miss_rate::.cpu.inst              1                       # miss rate for overall accesses
system.l2.overall_miss_rate::.cpu.data              1                       # miss rate for overall accesses
system.l2.overall_miss_rate::.switch_cpus.inst     0.926247                       # miss rate for overall accesses
system.l2.overall_miss_rate::.switch_cpus.data     0.838614                       # miss rate for overall accesses
system.l2.overall_miss_rate::total           0.839008                       # miss rate for overall accesses
system.l2.demand_avg_miss_latency::.switch_cpus.inst 83502.341920                       # average overall miss latency
system.l2.demand_avg_miss_latency::.switch_cpus.data 83975.505980                       # average overall miss latency
system.l2.demand_avg_miss_latency::total 83970.766222                       # average overall miss latency
system.l2.overall_avg_miss_latency::.switch_cpus.inst 83502.341920                       # average overall miss latency
system.l2.overall_avg_miss_latency::.switch_cpus.data 83975.505980                       # average overall miss latency
system.l2.overall_avg_miss_latency::total 83970.766222                       # average overall miss latency
system.l2.blocked_cycles::no_mshrs                  0                       # number of cycles access was blocked
system.l2.blocked_cycles::no_targets                0                       # number of cycles access was blocked
system.l2.blocked::no_mshrs                         0                       # number of cycles access was blocked
system.l2.blocked::no_targets                       0                       # number of cycles access was blocked
system.l2.avg_blocked_cycles::no_mshrs            nan                       # average number of cycles each access was blocked
system.l2.avg_blocked_cycles::no_targets          nan                       # average number of cycles each access was blocked
system.l2.writebacks::.writebacks               16149                       # number of writebacks
system.l2.writebacks::total                     16149                       # number of writebacks
system.l2.demand_mshr_misses::.switch_cpus.inst          854                       # number of demand (read+write) MSHR misses
system.l2.demand_mshr_misses::.switch_cpus.data       172981                       # number of demand (read+write) MSHR misses
system.l2.demand_mshr_misses::total            173835                       # number of demand (read+write) MSHR misses
system.l2.overall_mshr_misses::.switch_cpus.inst          854                       # number of overall MSHR misses
system.l2.overall_mshr_misses::.switch_cpus.data       172981                       # number of overall MSHR misses
system.l2.overall_mshr_misses::total           173835                       # number of overall MSHR misses
system.l2.demand_mshr_miss_latency::.switch_cpus.inst     62771000                       # number of demand (read+write) MSHR miss cycles
system.l2.demand_mshr_miss_latency::.switch_cpus.data  12796377000                       # number of demand (read+write) MSHR miss cycles
system.l2.demand_mshr_miss_latency::total  12859148000                       # number of demand (read+write) MSHR miss cycles
system.l2.overall_mshr_miss_latency::.switch_cpus.inst     62771000                       # number of overall MSHR miss cycles
system.l2.overall_mshr_miss_latency::.switch_cpus.data  12796377000                       # number of overall MSHR miss cycles
system.l2.overall_mshr_miss_latency::total  12859148000                       # number of overall MSHR miss cycles
system.l2.demand_mshr_miss_rate::.switch_cpus.inst     0.926247                       # mshr miss rate for demand accesses
system.l2.demand_mshr_miss_rate::.switch_cpus.data     0.838614                       # mshr miss rate for demand accesses
system.l2.demand_mshr_miss_rate::total       0.838984                       # mshr miss rate for demand accesses
system.l2.overall_mshr_miss_rate::.switch_cpus.inst     0.926247                       # mshr miss rate for overall accesses
system.l2.overall_mshr_miss_rate::.switch_cpus.data     0.838614                       # mshr miss rate for overall accesses
system.l2.overall_mshr_miss_rate::total      0.838984                       # mshr miss rate for overall accesses
system.l2.demand_avg_mshr_miss_latency::.switch_cpus.inst 73502.341920                       # average overall mshr miss latency
system.l2.demand_avg_mshr_miss_latency::.switch_cpus.data 73975.621600                       # average overall mshr miss latency
system.l2.demand_avg_mshr_miss_latency::total 73973.296517                       # average overall mshr miss latency
system.l2.overall_avg_mshr_miss_latency::.switch_cpus.inst 73502.341920                       # average overall mshr miss latency
system.l2.overall_avg_mshr_miss_latency::.switch_cpus.data 73975.621600                       # average overall mshr miss latency
system.l2.overall_avg_mshr_miss_latency::total 73973.296517                       # average overall mshr miss latency
system.l2.replacements                         172929                       # number of replacements
system.l2.WritebackDirty_hits::.writebacks        25922                       # number of WritebackDirty hits
system.l2.WritebackDirty_hits::total            25922                       # number of WritebackDirty hits
system.l2.WritebackDirty_accesses::.writebacks        25922                       # number of WritebackDirty accesses(hits+misses)
system.l2.WritebackDirty_accesses::total        25922                       # number of WritebackDirty accesses(hits+misses)
system.l2.WritebackClean_hits::.writebacks          463                       # number of WritebackClean hits
system.l2.WritebackClean_hits::total              463                       # number of WritebackClean hits
system.l2.WritebackClean_accesses::.writebacks          463                       # number of WritebackClean accesses(hits+misses)
system.l2.WritebackClean_accesses::total          463                       # number of WritebackClean accesses(hits+misses)
system.l2.CleanEvict_mshr_misses::.writebacks        20106                       # number of CleanEvict MSHR misses
system.l2.CleanEvict_mshr_misses::total         20106                       # number of CleanEvict MSHR misses
system.l2.CleanEvict_mshr_miss_rate::.writebacks          inf                       # mshr miss rate for CleanEvict accesses
system.l2.CleanEvict_mshr_miss_rate::total          inf                       # mshr miss rate for CleanEvict accesses
system.l2.ReadExReq_hits::.switch_cpus.data         1435                       # number of ReadExReq hits
system.l2.ReadExReq_hits::total                  1435                       # number of ReadExReq hits
system.l2.ReadExReq_misses::.switch_cpus.data         8610                       # number of ReadExReq misses
system.l2.ReadExReq_misses::total                8610                       # number of ReadExReq misses
system.l2.ReadExReq_miss_latency::.switch_cpus.data    710294000                       # number of ReadExReq miss cycles
system.l2.ReadExReq_miss_latency::total     710294000                       # number of ReadExReq miss cycles
system.l2.ReadExReq_accesses::.switch_cpus.data        10045                       # number of ReadExReq accesses(hits+misses)
system.l2.ReadExReq_accesses::total             10045                       # number of ReadExReq accesses(hits+misses)
system.l2.ReadExReq_miss_rate::.switch_cpus.data     0.857143                       # miss rate for ReadExReq accesses
system.l2.ReadExReq_miss_rate::total         0.857143                       # miss rate for ReadExReq accesses
system.l2.ReadExReq_avg_miss_latency::.switch_cpus.data 82496.399535                       # average ReadExReq miss latency
system.l2.ReadExReq_avg_miss_latency::total 82496.399535                       # average ReadExReq miss latency
system.l2.ReadExReq_mshr_misses::.switch_cpus.data         8610                       # number of ReadExReq MSHR misses
system.l2.ReadExReq_mshr_misses::total           8610                       # number of ReadExReq MSHR misses
system.l2.ReadExReq_mshr_miss_latency::.switch_cpus.data    624194000                       # number of ReadExReq MSHR miss cycles
system.l2.ReadExReq_mshr_miss_latency::total    624194000                       # number of ReadExReq MSHR miss cycles
system.l2.ReadExReq_mshr_miss_rate::.switch_cpus.data     0.857143                       # mshr miss rate for ReadExReq accesses
system.l2.ReadExReq_mshr_miss_rate::total     0.857143                       # mshr miss rate for ReadExReq accesses
system.l2.ReadExReq_avg_mshr_miss_latency::.switch_cpus.data 72496.399535                       # average ReadExReq mshr miss latency
system.l2.ReadExReq_avg_mshr_miss_latency::total 72496.399535                       # average ReadExReq mshr miss latency
system.l2.ReadCleanReq_hits::.switch_cpus.inst           68                       # number of ReadCleanReq hits
system.l2.ReadCleanReq_hits::total                 68                       # number of ReadCleanReq hits
system.l2.ReadCleanReq_misses::.cpu.inst            2                       # number of ReadCleanReq misses
system.l2.ReadCleanReq_misses::.switch_cpus.inst          854                       # number of ReadCleanReq misses
system.l2.ReadCleanReq_misses::total              856                       # number of ReadCleanReq misses
system.l2.ReadCleanReq_miss_latency::.switch_cpus.inst     71311000                       # number of ReadCleanReq miss cycles
system.l2.ReadCleanReq_miss_latency::total     71311000                       # number of ReadCleanReq miss cycles
system.l2.ReadCleanReq_accesses::.cpu.inst            2                       # number of ReadCleanReq accesses(hits+misses)
system.l2.ReadCleanReq_accesses::.switch_cpus.inst          922                       # number of ReadCleanReq accesses(hits+misses)
system.l2.ReadCleanReq_accesses::total            924                       # number of ReadCleanReq accesses(hits+misses)
system.l2.ReadCleanReq_miss_rate::.cpu.inst            1                       # miss rate for ReadCleanReq accesses
system.l2.ReadCleanReq_miss_rate::.switch_cpus.inst     0.926247                       # miss rate for ReadCleanReq accesses
system.l2.ReadCleanReq_miss_rate::total      0.926407                       # miss rate for ReadCleanReq accesses
system.l2.ReadCleanReq_avg_miss_latency::.switch_cpus.inst 83502.341920                       # average ReadCleanReq miss latency
[...]
system.cpu.icache.tags.data_accesses         13995812                       # Number of data accesses
system.cpu.dtb.walker.pwrStateResidencyTicks::UNDEFINED 359132452819500                       # Cumulative time (in ticks) in various power states
system.cpu.interrupts.clk_domain.clock           8000                       # Clock period in ticks
system.cpu.itb_walker_cache.pwrStateResidencyTicks::UNDEFINED 359132452819500                       # Cumulative time (in ticks) in various power states
system.cpu.itb_walker_cache.blocked_cycles::no_mshrs            0                       # number of cycles access was blocked
system.cpu.itb_walker_cache.blocked_cycles::no_targets            0                       # number of cycles access was blocked
system.cpu.itb_walker_cache.blocked::no_mshrs            0                       # number of cycles access was blocked
system.cpu.itb_walker_cache.blocked::no_targets            0                       # number of cycles access was blocked
system.cpu.itb_walker_cache.avg_blocked_cycles::no_mshrs          nan                       # average number of cycles each access was blocked
system.cpu.itb_walker_cache.avg_blocked_cycles::no_targets          nan                       # average number of cycles each access was blocked
system.cpu.itb_walker_cache.replacements            0                       # number of replacements
system.cpu.itb_walker_cache.tags.pwrStateResidencyTicks::UNDEFINED 359132452819500                       # Cumulative time (in ticks) in various power states
system.cpu.itb_walker_cache.tags.tagsinuse            0                       # Cycle average of tags in use
system.cpu.itb_walker_cache.tags.total_refs            0                       # Total number of references to valid blocks.
system.cpu.itb_walker_cache.tags.sampled_refs            0                       # Sample count of references to valid blocks.
system.cpu.itb_walker_cache.tags.avg_refs          nan                       # Average number of references to valid blocks.
system.cpu.itb_walker_cache.tags.warmup_cycle            0                       # Cycle when the warmup percentage was hit.
system.cpu.itb_walker_cache.tags.tag_accesses            0                       # Number of tag accesses
system.cpu.itb_walker_cache.tags.data_accesses            0                       # Number of data accesses
system.cpu.itb.walker.pwrStateResidencyTicks::UNDEFINED 359132452819500                       # Cumulative time (in ticks) in various power states
system.cpu.dtb_walker_cache.pwrStateResidencyTicks::UNDEFINED 359132452819500                       # Cumulative time (in ticks) in various power states
system.cpu.dtb_walker_cache.blocked_cycles::no_mshrs            0                       # number of cycles access was blocked
system.cpu.dtb_walker_cache.blocked_cycles::no_targets            0                       # number of cycles access was blocked
system.cpu.dtb_walker_cache.blocked::no_mshrs            0                       # number of cycles access was blocked
system.cpu.dtb_walker_cache.blocked::no_targets            0                       # number of cycles access was blocked
system.cpu.dtb_walker_cache.avg_blocked_cycles::no_mshrs          nan                       # average number of cycles each access was blocked
system.cpu.dtb_walker_cache.avg_blocked_cycles::no_targets          nan                       # average number of cycles each access was blocked
system.cpu.dtb_walker_cache.replacements            0                       # number of replacements
system.cpu.dtb_walker_cache.tags.pwrStateResidencyTicks::UNDEFINED 359132452819500                       # Cumulative time (in ticks) in various power states
system.cpu.dtb_walker_cache.tags.tagsinuse            0                       # Cycle average of tags in use
system.cpu.dtb_walker_cache.tags.total_refs            0                       # Total number of references to valid blocks.
system.cpu.dtb_walker_cache.tags.sampled_refs            0                       # Sample count of references to valid blocks.
system.cpu.dtb_walker_cache.tags.avg_refs          nan                       # Average number of references to valid blocks.
system.cpu.dtb_walker_cache.tags.warmup_cycle            0                       # Cycle when the warmup percentage was hit.
system.cpu.dtb_walker_cache.tags.tag_accesses            0                       # Number of tag accesses
system.cpu.dtb_walker_cache.tags.data_accesses            0                       # Number of data accesses
system.cpu.dcache.pwrStateResidencyTicks::UNDEFINED 359132452819500                       # Cumulative time (in ticks) in various power states
system.cpu.dcache.demand_hits::.cpu.data            1                       # number of demand (read+write) hits
system.cpu.dcache.demand_hits::.switch_cpus.data     10747487                       # number of demand (read+write) hits
system.cpu.dcache.demand_hits::total         10747488                       # number of demand (read+write) hits
system.cpu.dcache.overall_hits::.cpu.data            1                       # number of overall hits
system.cpu.dcache.overall_hits::.switch_cpus.data     10747487                       # number of overall hits
system.cpu.dcache.overall_hits::total        10747488                       # number of overall hits
system.cpu.dcache.demand_misses::.cpu.data            3                       # number of demand (read+write) misses
system.cpu.dcache.demand_misses::.switch_cpus.data      3203779                       # number of demand (read+write) misses
system.cpu.dcache.demand_misses::total        3203782                       # number of demand (read+write) misses
system.cpu.dcache.overall_misses::.cpu.data            3                       # number of overall misses
system.cpu.dcache.overall_misses::.switch_cpus.data      3203779                       # number of overall misses
system.cpu.dcache.overall_misses::total       3203782                       # number of overall misses
system.cpu.dcache.demand_miss_latency::.switch_cpus.data 211612088453                       # number of demand (read+write) miss cycles
system.cpu.dcache.demand_miss_latency::total 211612088453                       # number of demand (read+write) miss cycles
system.cpu.dcache.overall_miss_latency::.switch_cpus.data 211612088453                       # number of overall miss cycles
system.cpu.dcache.overall_miss_latency::total 211612088453                       # number of overall miss cycles
system.cpu.dcache.demand_accesses::.cpu.data            4                       # number of demand (read+write) accesses
system.cpu.dcache.demand_accesses::.switch_cpus.data     13951266                       # number of demand (read+write) accesses
system.cpu.dcache.demand_accesses::total     13951270                       # number of demand (read+write) accesses
system.cpu.dcache.overall_accesses::.cpu.data            4                       # number of overall (read+write) accesses
system.cpu.dcache.overall_accesses::.switch_cpus.data     13951266                       # number of overall (read+write) accesses
system.cpu.dcache.overall_accesses::total     13951270                       # number of overall (read+write) accesses
system.cpu.dcache.demand_miss_rate::.cpu.data     0.750000                       # miss rate for demand accesses
system.cpu.dcache.demand_miss_rate::.switch_cpus.data     0.229641                       # miss rate for demand accesses
system.cpu.dcache.demand_miss_rate::total     0.229641                       # miss rate for demand accesses
system.cpu.dcache.overall_miss_rate::.cpu.data     0.750000                       # miss rate for overall accesses
system.cpu.dcache.overall_miss_rate::.switch_cpus.data     0.229641                       # miss rate for overall accesses
system.cpu.dcache.overall_miss_rate::total     0.229641                       # miss rate for overall accesses
system.cpu.dcache.demand_avg_miss_latency::.switch_cpus.data 66050.775804                       # average overall miss latency
system.cpu.dcache.demand_avg_miss_latency::total 66050.713954                       # average overall miss latency
system.cpu.dcache.overall_avg_miss_latency::.switch_cpus.data 66050.775804                       # average overall miss latency
system.cpu.dcache.overall_avg_miss_latency::total 66050.713954                       # average overall miss latency
system.cpu.dcache.blocked_cycles::no_mshrs      4762448                       # number of cycles access was blocked
system.cpu.dcache.blocked_cycles::no_targets           48                       # number of cycles access was blocked
system.cpu.dcache.blocked::no_mshrs            128816                       # number of cycles access was blocked
system.cpu.dcache.blocked::no_targets               1                       # number of cycles access was blocked
system.cpu.dcache.avg_blocked_cycles::no_mshrs    36.970935                       # average number of cycles each access was blocked
system.cpu.dcache.avg_blocked_cycles::no_targets           48                       # average number of cycles each access was blocked
system.cpu.dcache.writebacks::.writebacks       110637                       # number of writebacks
system.cpu.dcache.writebacks::total            110637                       # number of writebacks
system.cpu.dcache.demand_mshr_hits::.switch_cpus.data      2370252                       # number of demand (read+write) MSHR hits
system.cpu.dcache.demand_mshr_hits::total      2370252                       # number of demand (read+write) MSHR hits
system.cpu.dcache.overall_mshr_hits::.switch_cpus.data      2370252                       # number of overall MSHR hits
system.cpu.dcache.overall_mshr_hits::total      2370252                       # number of overall MSHR hits
system.cpu.dcache.demand_mshr_misses::.switch_cpus.data       833527                       # number of demand (read+write) MSHR misses
system.cpu.dcache.demand_mshr_misses::total       833527                       # number of demand (read+write) MSHR misses
system.cpu.dcache.overall_mshr_misses::.switch_cpus.data       833527                       # number of overall MSHR misses
system.cpu.dcache.overall_mshr_misses::total       833527                       # number of overall MSHR misses
system.cpu.dcache.demand_mshr_miss_latency::.switch_cpus.data  61142884457                       # number of demand (read+write) MSHR miss cycles
system.cpu.dcache.demand_mshr_miss_latency::total  61142884457                       # number of demand (read+write) MSHR miss cycles
system.cpu.dcache.overall_mshr_miss_latency::.switch_cpus.data  61142884457                       # number of overall MSHR miss cycles
system.cpu.dcache.overall_mshr_miss_latency::total  61142884457                       # number of overall MSHR miss cycles
system.cpu.dcache.demand_mshr_miss_rate::.switch_cpus.data     0.059746                       # mshr miss rate for demand accesses
system.cpu.dcache.demand_mshr_miss_rate::total     0.059746                       # mshr miss rate for demand accesses
system.cpu.dcache.overall_mshr_miss_rate::.switch_cpus.data     0.059746                       # mshr miss rate for overall accesses
system.cpu.dcache.overall_mshr_miss_rate::total     0.059746                       # mshr miss rate for overall accesses
system.cpu.dcache.demand_avg_mshr_miss_latency::.switch_cpus.data 73354.413783                       # average overall mshr miss latency
system.cpu.dcache.demand_avg_mshr_miss_latency::total 73354.413783                       # average overall mshr miss latency
system.cpu.dcache.overall_avg_mshr_miss_latency::.switch_cpus.data 73354.413783                       # average overall mshr miss latency
system.cpu.dcache.overall_avg_mshr_miss_latency::total 73354.413783                       # average overall mshr miss latency
system.cpu.dcache.replacements                 832506                       # number of replacements
system.cpu.dcache.ReadReq_hits::.cpu.data            1                       # number of ReadReq hits
system.cpu.dcache.ReadReq_hits::.switch_cpus.data      9409631                       # number of ReadReq hits
system.cpu.dcache.ReadReq_hits::total         9409632                       # number of ReadReq hits
system.cpu.dcache.ReadReq_misses::.cpu.data            3                       # number of ReadReq misses
system.cpu.dcache.ReadReq_misses::.switch_cpus.data      3162362                       # number of ReadReq misses
system.cpu.dcache.ReadReq_misses::total       3162365                       # number of ReadReq misses
system.cpu.dcache.ReadReq_miss_latency::.switch_cpus.data 208536863500                       # number of ReadReq miss cycles
system.cpu.dcache.ReadReq_miss_latency::total 208536863500                       # number of ReadReq miss cycles
system.cpu.dcache.ReadReq_accesses::.cpu.data            4                       # number of ReadReq accesses(hits+misses)
system.cpu.dcache.ReadReq_accesses::.switch_cpus.data     12571993                       # number of ReadReq accesses(hits+misses)
system.cpu.dcache.ReadReq_accesses::total     12571997                       # number of ReadReq accesses(hits+misses)
system.cpu.dcache.ReadReq_miss_rate::.cpu.data     0.750000                       # miss rate for ReadReq accesses
system.cpu.dcache.ReadReq_miss_rate::.switch_cpus.data     0.251540                       # miss rate for ReadReq accesses
system.cpu.dcache.ReadReq_miss_rate::total     0.251540                       # miss rate for ReadReq accesses
system.cpu.dcache.ReadReq_avg_miss_latency::.switch_cpus.data 65943.387727                       # average ReadReq miss latency
system.cpu.dcache.ReadReq_avg_miss_latency::total 65943.325170                       # average ReadReq miss latency
system.cpu.dcache.ReadReq_mshr_hits::.switch_cpus.data      2369888                       # number of ReadReq MSHR hits
system.cpu.dcache.ReadReq_mshr_hits::total      2369888                       # number of ReadReq MSHR hits
system.cpu.dcache.ReadReq_mshr_misses::.switch_cpus.data       792474                       # number of ReadReq MSHR misses
system.cpu.dcache.ReadReq_mshr_misses::total       792474                       # number of ReadReq MSHR misses
system.cpu.dcache.ReadReq_mshr_miss_latency::.switch_cpus.data  58127928000                       # number of ReadReq MSHR miss cycles
system.cpu.dcache.ReadReq_mshr_miss_latency::total  58127928000                       # number of ReadReq MSHR miss cycles
system.cpu.dcache.ReadReq_mshr_miss_rate::.switch_cpus.data     0.063035                       # mshr miss rate for ReadReq accesses
system.cpu.dcache.ReadReq_mshr_miss_rate::total     0.063035                       # mshr miss rate for ReadReq accesses
system.cpu.dcache.ReadReq_avg_mshr_miss_latency::.switch_cpus.data 73349.949651                       # average ReadReq mshr miss latency
system.cpu.dcache.ReadReq_avg_mshr_miss_latency::total 73349.949651                       # average ReadReq mshr miss latency
system.cpu.dcache.WriteReq_hits::.switch_cpus.data      1337856                       # number of WriteReq hits
system.cpu.dcache.WriteReq_hits::total        1337856                       # number of WriteReq hits
system.cpu.dcache.WriteReq_misses::.switch_cpus.data        41417                       # number of WriteReq misses
system.cpu.dcache.WriteReq_misses::total        41417                       # number of WriteReq misses
system.cpu.dcache.WriteReq_miss_latency::.switch_cpus.data   3075224953                       # number of WriteReq miss cycles
system.cpu.dcache.WriteReq_miss_latency::total   3075224953                       # number of WriteReq miss cycles
system.cpu.dcache.WriteReq_accesses::.switch_cpus.data      1379273                       # number of WriteReq accesses(hits+misses)
system.cpu.dcache.WriteReq_accesses::total      1379273                       # number of WriteReq accesses(hits+misses)
system.cpu.dcache.WriteReq_miss_rate::.switch_cpus.data     0.030028                       # miss rate for WriteReq accesses
system.cpu.dcache.WriteReq_miss_rate::total     0.030028                       # miss rate for WriteReq accesses
system.cpu.dcache.WriteReq_avg_miss_latency::.switch_cpus.data 74250.306710                       # average WriteReq miss latency
system.cpu.dcache.WriteReq_avg_miss_latency::total 74250.306710                       # average WriteReq miss latency
system.cpu.dcache.WriteReq_mshr_hits::.switch_cpus.data          364                       # number of WriteReq MSHR hits
system.cpu.dcache.WriteReq_mshr_hits::total          364                       # number of WriteReq MSHR hits
system.cpu.dcache.WriteReq_mshr_misses::.switch_cpus.data        41053                       # number of WriteReq MSHR misses
system.cpu.dcache.WriteReq_mshr_misses::total        41053                       # number of WriteReq MSHR misses
system.cpu.dcache.WriteReq_mshr_miss_latency::.switch_cpus.data   3014956457                       # number of WriteReq MSHR miss cycles
system.cpu.dcache.WriteReq_mshr_miss_latency::total   3014956457                       # number of WriteReq MSHR miss cycles
system.cpu.dcache.WriteReq_mshr_miss_rate::.switch_cpus.data     0.029764                       # mshr miss rate for WriteReq accesses
system.cpu.dcache.WriteReq_mshr_miss_rate::total     0.029764                       # mshr miss rate for WriteReq accesses
system.cpu.dcache.WriteReq_avg_mshr_miss_latency::.switch_cpus.data 73440.587947                       # average WriteReq mshr miss latency
system.cpu.dcache.WriteReq_avg_mshr_miss_latency::total 73440.587947                       # average WriteReq mshr miss latency
system.cpu.dcache.tags.pwrStateResidencyTicks::UNDEFINED 359132452819500                       # Cumulative time (in ticks) in various power states
system.cpu.dcache.tags.tagsinuse             0.108113                       # Cycle average of tags in use
system.cpu.dcache.tags.total_refs            11581018                       # Total number of references to valid blocks.
system.cpu.dcache.tags.sampled_refs            833530                       # Sample count of references to valid blocks.
system.cpu.dcache.tags.avg_refs             13.893943                       # Average number of references to valid blocks.
system.cpu.dcache.tags.warmup_cycle      359094507845000                       # Cycle when the warmup percentage was hit.
system.cpu.dcache.tags.occ_blocks::.cpu.data     0.000002                       # Average occupied blocks per requestor
system.cpu.dcache.tags.occ_blocks::.switch_cpus.data     0.108111                       # Average occupied blocks per requestor
system.cpu.dcache.tags.occ_percent::.cpu.data     0.000000                       # Average percentage of cache occupancy
system.cpu.dcache.tags.occ_percent::.switch_cpus.data     0.000106                       # Average percentage of cache occupancy
system.cpu.dcache.tags.occ_percent::total     0.000106                       # Average percentage of cache occupancy
system.cpu.dcache.tags.occ_task_id_blocks::1024         1024                       # Occupied blocks per task id
system.cpu.dcache.tags.age_task_id_blocks_1024::0          228                       # Occupied blocks per task id
system.cpu.dcache.tags.age_task_id_blocks_1024::1          712                       # Occupied blocks per task id
system.cpu.dcache.tags.age_task_id_blocks_1024::2           84                       # Occupied blocks per task id
system.cpu.dcache.tags.occ_task_id_percent::1024            1                       # Percentage of cache occupancy per task id
system.cpu.dcache.tags.tag_accesses          28736070                       # Number of tag accesses
system.cpu.dcache.tags.data_accesses         28736070                       # Number of data accesses

---------- End Simulation Statistics   ----------
