
---------- Begin Simulation Statistics ----------
final_tick                               926048557407000                       # Number of ticks from beginning of simulation (restored from checkpoints and never reset)
host_inst_rate                                  42205                       # Simulator instruction rate (inst/s)
host_mem_usage                                 831020                       # Number of bytes of host memory used
host_op_rate                                    71011                       # Simulator op (including micro ops) rate (op/s)
host_seconds                                   236.94                       # Real time elapsed on the host
host_tick_rate                               37791215                       # Simulator tick rate (ticks/s)
sim_freq                                 1000000000000                       # Frequency of simulated ticks
sim_insts                                    10000011                       # Number of instructions simulated
sim_ops                                      16825017                       # Number of ops (including micro ops) simulated
sim_seconds                                  0.008954                       # Number of seconds simulated
sim_ticks                                  8954124500                       # Number of ticks simulated
system.cpu.Branches                                 3                       # Number of branches fetched
system.cpu.committedInsts                           9                       # Number of instructions committed
system.cpu.committedOps                            18                       # Number of ops (including micro ops) committed
system.cpu.dtb.rdAccesses                           2                       # TLB accesses on read requests
system.cpu.dtb.rdMisses                             0                       # TLB misses on read requests
system.cpu.dtb.wrAccesses                           0                       # TLB accesses on write requests
system.cpu.dtb.wrMisses                             0                       # TLB misses on write requests
system.cpu.idle_fraction                            0                       # Percentage of idle cycles
system.cpu.itb.rdAccesses                           0                       # TLB accesses on read requests
system.cpu.itb.rdMisses                             0                       # TLB misses on read requests
system.cpu.itb.wrAccesses                          11                       # TLB accesses on write requests
system.cpu.itb.wrMisses                             0                       # TLB misses on write requests
system.cpu.not_idle_fraction                        1                       # Percentage of non-idle cycles
system.cpu.numCycles                               20                       # number of cpu cycles simulated
system.cpu.numWorkItemsCompleted                    0                       # number of work items this cpu completed
system.cpu.numWorkItemsStarted                      0                       # number of work items this cpu started
system.cpu.num_busy_cycles                         20                       # Number of busy cycles
system.cpu.num_cc_register_reads                   15                       # number of times the CC registers were read
system.cpu.num_cc_register_writes                   8                       # number of times the CC registers were written
system.cpu.num_conditional_control_insts            3                       # number of instructions that are conditional controls
system.cpu.num_fp_alu_accesses                      0                       # Number of float alu accesses
system.cpu.num_fp_insts                             0                       # number of float instructions
system.cpu.num_fp_register_reads                    0                       # number of times the floating registers were read
system.cpu.num_fp_register_writes                   0                       # number of times the floating registers were written
system.cpu.num_func_calls                           0                       # number of times a function call or return occured
system.cpu.num_idle_cycles                          0                       # Number of idle cycles
system.cpu.num_int_alu_accesses                    18                       # Number of integer alu accesses
system.cpu.num_int_insts                           18                       # number of integer instructions
system.cpu.num_int_register_reads                  29                       # number of times the integer registers were read
system.cpu.num_int_register_writes                 15                       # number of times the integer registers were written
system.cpu.num_load_insts                           2                       # Number of load instructions
system.cpu.num_mem_refs                             2                       # number of memory refs
system.cpu.num_store_insts                          0                       # Number of store instructions
system.cpu.num_vec_alu_accesses                     0                       # Number of vector alu accesses
system.cpu.num_vec_insts                            0                       # number of vector instructions
system.cpu.num_vec_register_reads                   0                       # number of times the vector registers were read
system.cpu.num_vec_register_writes                  0                       # number of times the vector registers were written
system.cpu.op_class::No_OpClass                     0      0.00%      0.00% # Class of executed instruction
system.cpu.op_class::IntAlu                        16     88.89%     88.89% # Class of executed instruction
system.cpu.op_class::IntMult                        0      0.00%     88.89% # Class of executed instruction
system.cpu.op_class::IntDiv                         0      0.00%     88.89% # Class of executed instruction
system.cpu.op_class::FloatAdd                       0      0.00%     88.89% # Class of executed instruction
system.cpu.op_class::FloatCmp                       0      0.00%     88.89% # Class of executed instruction
system.cpu.op_class::FloatCvt                       0      0.00%     88.89% # Class of executed instruction
system.cpu.op_class::FloatMult                      0      0.00%     88.89% # Class of executed instruction
system.cpu.op_class::FloatMultAcc                   0      0.00%     88.89% # Class of executed instruction
system.cpu.op_class::FloatDiv                       0      0.00%     88.89% # Class of executed instruction
system.cpu.op_class::FloatMisc                      0      0.00%     88.89% # Class of executed instruction
system.cpu.op_class::FloatSqrt                      0      0.00%     88.89% # Class of executed instruction
system.cpu.op_class::SimdAdd                        0      0.00%     88.89% # Class of executed instruction
system.cpu.op_class::SimdAddAcc                     0      0.00%     88.89% # Class of executed instruction
system.cpu.op_class::SimdAlu                        0      0.00%     88.89% # Class of executed instruction
system.cpu.op_class::SimdCmp                        0      0.00%     88.89% # Class of executed instruction
system.cpu.op_class::SimdCvt                        0      0.00%     88.89% # Class of executed instruction
system.cpu.op_class::SimdMisc                       0      0.00%     88.89% # Class of executed instruction
system.cpu.op_class::SimdMult                       0      0.00%     88.89% # Class of executed instruction
system.cpu.op_class::SimdMultAcc                    0      0.00%     88.89% # Class of executed instruction
system.cpu.op_class::SimdShift                      0      0.00%     88.89% # Class of executed instruction
system.cpu.op_class::SimdShiftAcc                   0      0.00%     88.89% # Class of executed instruction
system.cpu.op_class::SimdDiv                        0      0.00%     88.89% # Class of executed instruction
system.cpu.op_class::SimdSqrt                       0      0.00%     88.89% # Class of executed instruction
system.cpu.op_class::SimdFloatAdd                   0      0.00%     88.89% # Class of executed instruction
system.cpu.op_class::SimdFloatAlu                   0      0.00%     88.89% # Class of executed instruction
system.cpu.op_class::SimdFloatCmp                   0      0.00%     88.89% # Class of executed instruction
system.cpu.op_class::SimdFloatCvt                   0      0.00%     88.89% # Class of executed instruction
system.cpu.op_class::SimdFloatDiv                   0      0.00%     88.89% # Class of executed instruction
system.cpu.op_class::SimdFloatMisc                  0      0.00%     88.89% # Class of executed instruction
system.cpu.op_class::SimdFloatMult                  0      0.00%     88.89% # Class of executed instruction
system.cpu.op_class::SimdFloatMultAcc               0      0.00%     88.89% # Class of executed instruction
system.cpu.op_class::SimdFloatSqrt                  0      0.00%     88.89% # Class of executed instruction
system.cpu.op_class::SimdReduceAdd                  0      0.00%     88.89% # Class of executed instruction
system.cpu.op_class::SimdReduceAlu                  0      0.00%     88.89% # Class of executed instruction
system.cpu.op_class::SimdReduceCmp                  0      0.00%     88.89% # Class of executed instruction
system.cpu.op_class::SimdFloatReduceAdd             0      0.00%     88.89% # Class of executed instruction
system.cpu.op_class::SimdFloatReduceCmp             0      0.00%     88.89% # Class of executed instruction
system.cpu.op_class::SimdAes                        0      0.00%     88.89% # Class of executed instruction
system.cpu.op_class::SimdAesMix                     0      0.00%     88.89% # Class of executed instruction
system.cpu.op_class::SimdSha1Hash                   0      0.00%     88.89% # Class of executed instruction
system.cpu.op_class::SimdSha1Hash2                  0      0.00%     88.89% # Class of executed instruction
system.cpu.op_class::SimdSha256Hash                 0      0.00%     88.89% # Class of executed instruction
system.cpu.op_class::SimdSha256Hash2                0      0.00%     88.89% # Class of executed instruction
system.cpu.op_class::SimdShaSigma2                  0      0.00%     88.89% # Class of executed instruction
system.cpu.op_class::SimdShaSigma3                  0      0.00%     88.89% # Class of executed instruction
system.cpu.op_class::SimdPredAlu                    0      0.00%     88.89% # Class of executed instruction
system.cpu.op_class::MemRead                        2     11.11%    100.00% # Class of executed instruction
system.cpu.op_class::MemWrite                       0      0.00%    100.00% # Class of executed instruction
system.cpu.op_class::FloatMemRead                   0      0.00%    100.00% # Class of executed instruction
system.cpu.op_class::FloatMemWrite                  0      0.00%    100.00% # Class of executed instruction
system.cpu.op_class::IprAccess                      0      0.00%    100.00% # Class of executed instruction
system.cpu.op_class::InstPrefetch                   0      0.00%    100.00% # Class of executed instruction
system.cpu.op_class::total                         18                       # Class of executed instruction
system.cpu.workload.numSyscalls                     0                       # Number of system calls
system.membus.snoop_filter.hit_multi_requests            0                       # Number of requests hitting in the snoop filter with multiple (>1) holders of the requested data.
system.membus.snoop_filter.hit_multi_snoops            0                       # Number of snoops hitting in the snoop filter with multiple (>1) holders of the requested data.
system.membus.snoop_filter.hit_single_requests        90652                       # Number of requests hitting in the snoop filter with a single holder of the requested data.
system.membus.snoop_filter.hit_single_snoops            0                       # Number of snoops hitting in the snoop filter with a single holder of the requested data.
system.membus.snoop_filter.tot_requests        189630                       # Total number of requests made to the snoop filter.
system.membus.snoop_filter.tot_snoops               0                       # Total number of snoops made to the snoop filter.
system.switch_cpus.branchPred.BTBCorrect            0                       # Number of correct BTB predictions (this stat may not work properly.
system.switch_cpus.branchPred.BTBHitPct      0.000000                       # BTB Hit Percentage
system.switch_cpus.branchPred.BTBHits               0                       # Number of BTB hits
system.switch_cpus.branchPred.BTBLookups      4874545                       # Number of BTB lookups
system.switch_cpus.branchPred.RASInCorrect            0                       # Number of incorrect RAS predictions.
system.switch_cpus.branchPred.condIncorrect       565493                       # Number of conditional branches incorrect
system.switch_cpus.branchPred.condPredicted      5934387                       # Number of conditional branches predicted
system.switch_cpus.branchPred.indirectHits      2760921                       # Number of indirect target hits.
system.switch_cpus.branchPred.indirectLookups      4874545                       # Number of indirect predictor lookups.
system.switch_cpus.branchPred.indirectMisses      2113624                       # Number of indirect misses.
system.switch_cpus.branchPred.lookups         5957687                       # Number of BP lookups
system.switch_cpus.branchPred.usedRAS               0                       # Number of times the RAS was used to get a target.
system.switch_cpus.branchPredindirectMispredicted       266779                       # Number of mispredicted indirect branches.
system.switch_cpus.cc_regfile_reads          15946903                       # number of cc regfile reads
system.switch_cpus.cc_regfile_writes         11828415                       # number of cc regfile writes
system.switch_cpus.commit.amos                      0                       # Number of atomic instructions committed
system.switch_cpus.commit.branchMispredicts       565493                       # The number of times a branch was mispredicted
system.switch_cpus.commit.branches            2315914                       # Number of branches committed
system.switch_cpus.commit.bw_lim_events        991773                       # number cycles where commit BW limit reached
system.switch_cpus.commit.commitSquashedInsts     18638351                       # The number of squashed insts skipped by commit
system.switch_cpus.commit.committedInsts     10000002                       # Number of instructions committed
system.switch_cpus.commit.committedOps       16824999                       # Number of ops (including micro ops) committed
system.switch_cpus.commit.committed_per_cycle::samples     15052164                       # Number of insts commited each cycle
system.switch_cpus.commit.committed_per_cycle::mean     1.117779                       # Number of insts commited each cycle
system.switch_cpus.commit.committed_per_cycle::stdev     2.279621                       # Number of insts commited each cycle
system.switch_cpus.commit.committed_per_cycle::underflows            0      0.00%      0.00% # Number of insts commited each cycle
system.switch_cpus.commit.committed_per_cycle::0     10655495     70.79%     70.79% # Number of insts commited each cycle
system.switch_cpus.commit.committed_per_cycle::1      1220262      8.11%     78.90% # Number of insts commited each cycle
system.switch_cpus.commit.committed_per_cycle::2       804834      5.35%     84.24% # Number of insts commited each cycle
system.switch_cpus.commit.committed_per_cycle::3       507114      3.37%     87.61% # Number of insts commited each cycle
system.switch_cpus.commit.committed_per_cycle::4       258010      1.71%     89.33% # Number of insts commited each cycle
system.switch_cpus.commit.committed_per_cycle::5       320708      2.13%     91.46% # Number of insts commited each cycle
system.switch_cpus.commit.committed_per_cycle::6       153813      1.02%     92.48% # Number of insts commited each cycle
system.switch_cpus.commit.committed_per_cycle::7       140155      0.93%     93.41% # Number of insts commited each cycle
system.switch_cpus.commit.committed_per_cycle::8       991773      6.59%    100.00% # Number of insts commited each cycle
system.switch_cpus.commit.committed_per_cycle::overflows            0      0.00%    100.00% # Number of insts commited each cycle
system.switch_cpus.commit.committed_per_cycle::min_value            0                       # Number of insts commited each cycle
system.switch_cpus.commit.committed_per_cycle::max_value            8                       # Number of insts commited each cycle
system.switch_cpus.commit.committed_per_cycle::total     15052164                       # Number of insts commited each cycle
system.switch_cpus.commit.fp_insts              36688                       # Number of committed floating point instructions.
system.switch_cpus.commit.function_calls            0                       # Number of function calls committed.
system.switch_cpus.commit.int_insts          16806542                       # Number of committed integer instructions.
system.switch_cpus.commit.loads               1871376                       # Number of loads committed
system.switch_cpus.commit.membars                   0                       # Number of memory barriers committed
system.switch_cpus.commit.op_class_0::No_OpClass        18457      0.11%      0.11% # Class of committed instruction
system.switch_cpus.commit.op_class_0::IntAlu     14350133     85.29%     85.40% # Class of committed instruction
system.switch_cpus.commit.op_class_0::IntMult        10952      0.07%     85.47% # Class of committed instruction
system.switch_cpus.commit.op_class_0::IntDiv            0      0.00%     85.47% # Class of committed instruction
system.switch_cpus.commit.op_class_0::FloatAdd            0      0.00%     85.47% # Class of committed instruction
system.switch_cpus.commit.op_class_0::FloatCmp            0      0.00%     85.47% # Class of committed instruction
system.switch_cpus.commit.op_class_0::FloatCvt            0      0.00%     85.47% # Class of committed instruction
system.switch_cpus.commit.op_class_0::FloatMult            0      0.00%     85.47% # Class of committed instruction
system.switch_cpus.commit.op_class_0::FloatMultAcc            0      0.00%     85.47% # Class of committed instruction
system.switch_cpus.commit.op_class_0::FloatDiv            0      0.00%     85.47% # Class of committed instruction
system.switch_cpus.commit.op_class_0::FloatMisc            0      0.00%     85.47% # Class of committed instruction
system.switch_cpus.commit.op_class_0::FloatSqrt            0      0.00%     85.47% # Class of committed instruction
system.switch_cpus.commit.op_class_0::SimdAdd            0      0.00%     85.47% # Class of committed instruction
system.switch_cpus.commit.op_class_0::SimdAddAcc            0      0.00%     85.47% # Class of committed instruction
system.switch_cpus.commit.op_class_0::SimdAlu            0      0.00%     85.47% # Class of committed instruction
system.switch_cpus.commit.op_class_0::SimdCmp            0      0.00%     85.47% # Class of committed instruction
system.switch_cpus.commit.op_class_0::SimdCvt            0      0.00%     85.47% # Class of committed instruction
system.switch_cpus.commit.op_class_0::SimdMisc            0      0.00%     85.47% # Class of committed instruction
system.switch_cpus.commit.op_class_0::SimdMult            0      0.00%     85.47% # Class of committed instruction
system.switch_cpus.commit.op_class_0::SimdMultAcc            0      0.00%     85.47% # Class of committed instruction
system.switch_cpus.commit.op_class_0::SimdShift            0      0.00%     85.47% # Class of committed instruction
system.switch_cpus.commit.op_class_0::SimdShiftAcc            0      0.00%     85.47% # Class of committed instruction
system.switch_cpus.commit.op_class_0::SimdDiv            0      0.00%     85.47% # Class of committed instruction
system.switch_cpus.commit.op_class_0::SimdSqrt            0      0.00%     85.47% # Class of committed instruction
system.switch_cpus.commit.op_class_0::SimdFloatAdd            0      0.00%     85.47% # Class of committed instruction
system.switch_cpus.commit.op_class_0::SimdFloatAlu            0      0.00%     85.47% # Class of committed instruction
system.switch_cpus.commit.op_class_0::SimdFloatCmp            0      0.00%     85.47% # Class of committed instruction
system.switch_cpus.commit.op_class_0::SimdFloatCvt            0      0.00%     85.47% # Class of committed instruction
system.switch_cpus.commit.op_class_0::SimdFloatDiv            0      0.00%     85.47% # Class of committed instruction
system.switch_cpus.commit.op_class_0::SimdFloatMisc            0      0.00%     85.47% # Class of committed instruction
system.switch_cpus.commit.op_class_0::SimdFloatMult            0      0.00%     85.47% # Class of committed instruction
system.switch_cpus.commit.op_class_0::SimdFloatMultAcc            0      0.00%     85.47% # Class of committed instruction
system.switch_cpus.commit.op_class_0::SimdFloatSqrt            0      0.00%     85.47% # Class of committed instruction
system.switch_cpus.commit.op_class_0::SimdReduceAdd            0      0.00%     85.47% # Class of committed instruction
system.switch_cpus.commit.op_class_0::SimdReduceAlu            0      0.00%     85.47% # Class of committed instruction
system.switch_cpus.commit.op_class_0::SimdReduceCmp            0      0.00%     85.47% # Class of committed instruction
system.switch_cpus.commit.op_class_0::SimdFloatReduceAdd            0      0.00%     85.47% # Class of committed instruction
system.switch_cpus.commit.op_class_0::SimdFloatReduceCmp            0      0.00%     85.47% # Class of committed instruction
system.switch_cpus.commit.op_class_0::SimdAes            0      0.00%     85.47% # Class of committed instruction
system.switch_cpus.commit.op_class_0::SimdAesMix            0      0.00%     85.47% # Class of committed instruction
system.switch_cpus.commit.op_class_0::SimdSha1Hash            0      0.00%     85.47% # Class of committed instruction
system.switch_cpus.commit.op_class_0::SimdSha1Hash2            0      0.00%     85.47% # Class of committed instruction
system.switch_cpus.commit.op_class_0::SimdSha256Hash            0      0.00%     85.47% # Class of committed instruction
system.switch_cpus.commit.op_class_0::SimdSha256Hash2            0      0.00%     85.47% # Class of committed instruction
system.switch_cpus.commit.op_class_0::SimdShaSigma2            0      0.00%     85.47% # Class of committed instruction
system.switch_cpus.commit.op_class_0::SimdShaSigma3            0      0.00%     85.47% # Class of committed instruction
system.switch_cpus.commit.op_class_0::SimdPredAlu            0      0.00%     85.47% # Class of committed instruction
system.switch_cpus.commit.op_class_0::MemRead      1853032     11.01%     96.48% # Class of committed instruction
system.switch_cpus.commit.op_class_0::MemWrite       555737      3.30%     99.78% # Class of committed instruction
system.switch_cpus.commit.op_class_0::FloatMemRead        18344      0.11%     99.89% # Class of committed instruction
system.switch_cpus.commit.op_class_0::FloatMemWrite        18344      0.11%    100.00% # Class of committed instruction
system.switch_cpus.commit.op_class_0::IprAccess            0      0.00%    100.00% # Class of committed instruction
system.switch_cpus.commit.op_class_0::InstPrefetch            0      0.00%    100.00% # Class of committed instruction
system.switch_cpus.commit.op_class_0::total     16824999                       # Class of committed instruction
system.switch_cpus.commit.refs                2445457                       # Number of memory references committed
system.switch_cpus.commit.swp_count                 0                       # Number of s/w prefetches committed
system.switch_cpus.commit.vec_insts                 0                       # Number of committed Vector instructions.
system.switch_cpus.committedInsts            10000002                       # Number of Instructions Simulated
system.switch_cpus.committedOps              16824999                       # Number of Ops (including micro ops) Simulated
system.switch_cpus.cpi                       1.790823                       # CPI: Cycles Per Instruction
system.switch_cpus.cpi_total                 1.790823                       # CPI: Total CPI of All Threads
system.switch_cpus.decode.BlockedCycles       6514878                       # Number of cycles decode is blocked
system.switch_cpus.decode.DecodedInsts       42628305                       # Number of instructions handled by decode
system.switch_cpus.decode.IdleCycles          3895143                       # Number of cycles decode is idle
system.switch_cpus.decode.RunCycles           6374849                       # Number of cycles decode is running
system.switch_cpus.decode.SquashCycles         566426                       # Number of cycles decode is squashing
system.switch_cpus.decode.UnblockCycles        554219                       # Number of cycles decode is unblocking
system.switch_cpus.dtb.rdAccesses             3193416                       # TLB accesses on read requests
system.switch_cpus.dtb.rdMisses                370653                       # TLB misses on read requests
system.switch_cpus.dtb.wrAccesses             1025665                       # TLB accesses on write requests
system.switch_cpus.dtb.wrMisses                  3317                       # TLB misses on write requests
system.switch_cpus.fetch.Branches             5957687                       # Number of branches that fetch encountered
system.switch_cpus.fetch.CacheLines           4557545                       # Number of cache lines fetched
system.switch_cpus.fetch.Cycles              12492207                       # Number of cycles fetch has run and was not squashing or blocked
system.switch_cpus.fetch.IcacheSquashes        173083                       # Number of outstanding Icache misses that were squashed
system.switch_cpus.fetch.Insts               28659208                       # Number of instructions fetch has processed
system.switch_cpus.fetch.SquashCycles         1132852                       # Number of cycles fetch has spent squashing
system.switch_cpus.fetch.branchRate          0.332679                       # Number of branch fetches per cycle
system.switch_cpus.fetch.icacheStallCycles      4846887                       # Number of cycles fetch is stalled on an Icache miss
system.switch_cpus.fetch.predictedBranches      2760921                       # Number of branches that fetch has predicted taken
system.switch_cpus.fetch.rate                1.600337                       # Number of inst fetches per cycle
system.switch_cpus.fetch.rateDist::samples     17905520                       # Number of instructions fetched each cycle (Total)
system.switch_cpus.fetch.rateDist::mean      2.598435                       # Number of instructions fetched each cycle (Total)
system.switch_cpus.fetch.rateDist::stdev     3.320353                       # Number of instructions fetched each cycle (Total)
system.switch_cpus.fetch.rateDist::underflows            0      0.00%      0.00% # Number of instructions fetched each cycle (Total)
system.switch_cpus.fetch.rateDist::0          9684973     54.09%     54.09% # Number of instructions fetched each cycle (Total)
system.switch_cpus.fetch.rateDist::1           664502      3.71%     57.80% # Number of instructions fetched each cycle (Total)
system.switch_cpus.fetch.rateDist::2           816339      4.56%     62.36% # Number of instructions fetched each cycle (Total)
system.switch_cpus.fetch.rateDist::3           927397      5.18%     67.54% # Number of instructions fetched each cycle (Total)
system.switch_cpus.fetch.rateDist::4           451037      2.52%     70.06% # Number of instructions fetched each cycle (Total)
system.switch_cpus.fetch.rateDist::5           418496      2.34%     72.40% # Number of instructions fetched each cycle (Total)
system.switch_cpus.fetch.rateDist::6           942174      5.26%     77.66% # Number of instructions fetched each cycle (Total)
system.switch_cpus.fetch.rateDist::7           107521      0.60%     78.26% # Number of instructions fetched each cycle (Total)
system.switch_cpus.fetch.rateDist::8          3893081     21.74%    100.00% # Number of instructions fetched each cycle (Total)
system.switch_cpus.fetch.rateDist::overflows            0      0.00%    100.00% # Number of instructions fetched each cycle (Total)
system.switch_cpus.fetch.rateDist::min_value            0                       # Number of instructions fetched each cycle (Total)
system.switch_cpus.fetch.rateDist::max_value            8                       # Number of instructions fetched each cycle (Total)
system.switch_cpus.fetch.rateDist::total     17905520                       # Number of instructions fetched each cycle (Total)
system.switch_cpus.fp_regfile_reads             18381                       # number of floating regfile reads
system.switch_cpus.fp_regfile_writes            18595                       # number of floating regfile writes
system.switch_cpus.idleCycles                    2709                       # Total number of cycles that the CPU has spent unscheduled due to idling
system.switch_cpus.iew.branchMispredicts       639955                       # Number of branch mispredicts detected at execute
system.switch_cpus.iew.exec_branches          3564699                       # Number of branches executed
system.switch_cpus.iew.exec_nop                     0                       # number of nop insts executed
system.switch_cpus.iew.exec_rate             1.700748                       # Inst execution rate
system.switch_cpus.iew.exec_refs              4568939                       # number of memory reference insts executed
system.switch_cpus.iew.exec_stores            1024547                       # Number of stores executed
system.switch_cpus.iew.exec_swp                     0                       # number of swp insts executed
system.switch_cpus.iew.iewBlockCycles         2408495                       # Number of cycles IEW is blocking
system.switch_cpus.iew.iewDispLoadInsts       3914867                       # Number of dispatched load instructions
system.switch_cpus.iew.iewDispNonSpecInsts            0                       # Number of dispatched non-speculative instructions
system.switch_cpus.iew.iewDispSquashedInsts        61120                       # Number of squashed instructions skipped by dispatch
system.switch_cpus.iew.iewDispStoreInsts      1499486                       # Number of dispatched store instructions
system.switch_cpus.iew.iewDispatchedInsts     35463507                       # Number of instructions dispatched to IQ
system.switch_cpus.iew.iewExecLoadInsts       3544392                       # Number of load instructions executed
system.switch_cpus.iew.iewExecSquashedInsts      1298887                       # Number of squashed instructions skipped in execute
system.switch_cpus.iew.iewExecutedInsts      30457390                       # Number of executed instructions
system.switch_cpus.iew.iewIQFullEvents           5226                       # Number of times the IQ has become full, causing a stall
system.switch_cpus.iew.iewIdleCycles                0                       # Number of cycles IEW is idle
system.switch_cpus.iew.iewLSQFullEvents            47                       # Number of times the LSQ has become full, causing a stall
system.switch_cpus.iew.iewSquashCycles         566426                       # Number of cycles IEW is squashing
system.switch_cpus.iew.iewUnblockCycles          6415                       # Number of cycles IEW is unblocking
system.switch_cpus.iew.lsq.thread0.blockedLoads            0                       # Number of blocked loads due to partial load-store forwarding
system.switch_cpus.iew.lsq.thread0.cacheBlocked       100220                       # Number of times an access to memory failed due to the cache being blocked
system.switch_cpus.iew.lsq.thread0.forwLoads       116056                       # Number of loads that had data forwarded from stores
system.switch_cpus.iew.lsq.thread0.ignoredResponses         1407                       # Number of memory responses ignored because the instruction is squashed
system.switch_cpus.iew.lsq.thread0.invAddrLoads            0                       # Number of loads ignored due to an invalid address
system.switch_cpus.iew.lsq.thread0.invAddrSwpfs            0                       # Number of software prefetches ignored due to an invalid address
system.switch_cpus.iew.lsq.thread0.memOrderViolation         1414                       # Number of memory ordering violations
system.switch_cpus.iew.lsq.thread0.rescheduledLoads            2                       # Number of loads that were rescheduled
system.switch_cpus.iew.lsq.thread0.squashedLoads      2043473                       # Number of loads squashed
system.switch_cpus.iew.lsq.thread0.squashedStores       925405                       # Number of stores squashed
system.switch_cpus.iew.memOrderViolationEvents         1414                       # Number of memory order violations
system.switch_cpus.iew.predictedNotTakenIncorrect       442870                       # Number of branches that were predicted not taken incorrectly
system.switch_cpus.iew.predictedTakenIncorrect       197085                       # Number of branches that were predicted taken incorrectly
system.switch_cpus.iew.wb_consumers          29354318                       # num instructions consuming a value
system.switch_cpus.iew.wb_count              29587498                       # cumulative count of insts written-back
system.switch_cpus.iew.wb_fanout             0.723086                       # average fanout of values written-back
system.switch_cpus.iew.wb_producers          21225704                       # num instructions producing a value
system.switch_cpus.iew.wb_rate               1.652173                       # insts written-back per cycle
system.switch_cpus.iew.wb_sent               29725268                       # cumulative count of insts sent to commit
system.switch_cpus.int_regfile_reads         39871101                       # number of integer regfile reads
system.switch_cpus.int_regfile_writes        24971421                       # number of integer regfile writes
system.switch_cpus.ipc                       0.558403                       # IPC: Instructions Per Cycle
system.switch_cpus.ipc_total                 0.558403                       # IPC: Total IPC of All Threads
system.switch_cpus.iq.FU_type_0::No_OpClass       125888      0.40%      0.40% # Type of FU issued
system.switch_cpus.iq.FU_type_0::IntAlu      26806915     84.41%     84.81% # Type of FU issued
system.switch_cpus.iq.FU_type_0::IntMult        13825      0.04%     84.85% # Type of FU issued
system.switch_cpus.iq.FU_type_0::IntDiv             0      0.00%     84.85% # Type of FU issued
system.switch_cpus.iq.FU_type_0::FloatAdd            0      0.00%     84.85% # Type of FU issued
system.switch_cpus.iq.FU_type_0::FloatCmp            0      0.00%     84.85% # Type of FU issued
system.switch_cpus.iq.FU_type_0::FloatCvt            0      0.00%     84.85% # Type of FU issued
system.switch_cpus.iq.FU_type_0::FloatMult            0      0.00%     84.85% # Type of FU issued
system.switch_cpus.iq.FU_type_0::FloatMultAcc            0      0.00%     84.85% # Type of FU issued
system.switch_cpus.iq.FU_type_0::FloatDiv            0      0.00%     84.85% # Type of FU issued
system.switch_cpus.iq.FU_type_0::FloatMisc            0      0.00%     84.85% # Type of FU issued
system.switch_cpus.iq.FU_type_0::FloatSqrt            0      0.00%     84.85% # Type of FU issued
system.switch_cpus.iq.FU_type_0::SimdAdd            0      0.00%     84.85% # Type of FU issued
system.switch_cpus.iq.FU_type_0::SimdAddAcc            0      0.00%     84.85% # Type of FU issued
system.switch_cpus.iq.FU_type_0::SimdAlu            0      0.00%     84.85% # Type of FU issued
system.switch_cpus.iq.FU_type_0::SimdCmp            0      0.00%     84.85% # Type of FU issued
system.switch_cpus.iq.FU_type_0::SimdCvt            0      0.00%     84.85% # Type of FU issued
system.switch_cpus.iq.FU_type_0::SimdMisc            0      0.00%     84.85% # Type of FU issued
system.switch_cpus.iq.FU_type_0::SimdMult            0      0.00%     84.85% # Type of FU issued
system.switch_cpus.iq.FU_type_0::SimdMultAcc            0      0.00%     84.85% # Type of FU issued
system.switch_cpus.iq.FU_type_0::SimdShift            0      0.00%     84.85% # Type of FU issued
system.switch_cpus.iq.FU_type_0::SimdShiftAcc            0      0.00%     84.85% # Type of FU issued
system.switch_cpus.iq.FU_type_0::SimdDiv            0      0.00%     84.85% # Type of FU issued
system.switch_cpus.iq.FU_type_0::SimdSqrt            0      0.00%     84.85% # Type of FU issued
system.switch_cpus.iq.FU_type_0::SimdFloatAdd            0      0.00%     84.85% # Type of FU issued
system.switch_cpus.iq.FU_type_0::SimdFloatAlu            0      0.00%     84.85% # Type of FU issued
system.switch_cpus.iq.FU_type_0::SimdFloatCmp            0      0.00%     84.85% # Type of FU issued
system.switch_cpus.iq.FU_type_0::SimdFloatCvt            0      0.00%     84.85% # Type of FU issued
system.switch_cpus.iq.FU_type_0::SimdFloatDiv            0      0.00%     84.85% # Type of FU issued
system.switch_cpus.iq.FU_type_0::SimdFloatMisc            0      0.00%     84.85% # Type of FU issued
system.switch_cpus.iq.FU_type_0::SimdFloatMult            0      0.00%     84.85% # Type of FU issued
system.switch_cpus.iq.FU_type_0::SimdFloatMultAcc            0      0.00%     84.85% # Type of FU issued
system.switch_cpus.iq.FU_type_0::SimdFloatSqrt            0      0.00%     84.85% # Type of FU issued
system.switch_cpus.iq.FU_type_0::SimdReduceAdd            0      0.00%     84.85% # Type of FU issued
system.switch_cpus.iq.FU_type_0::SimdReduceAlu            0      0.00%     84.85% # Type of FU issued
system.switch_cpus.iq.FU_type_0::SimdReduceCmp            0      0.00%     84.85% # Type of FU issued
system.switch_cpus.iq.FU_type_0::SimdFloatReduceAdd            0      0.00%     84.85% # Type of FU issued
system.switch_cpus.iq.FU_type_0::SimdFloatReduceCmp            0      0.00%     84.85% # Type of FU issued
system.switch_cpus.iq.FU_type_0::SimdAes            0      0.00%     84.85% # Type of FU issued
system.switch_cpus.iq.FU_type_0::SimdAesMix            0      0.00%     84.85% # Type of FU issued
system.switch_cpus.iq.FU_type_0::SimdSha1Hash            0      0.00%     84.85% # Type of FU issued
system.switch_cpus.iq.FU_type_0::SimdSha1Hash2            0      0.00%     84.85% # Type of FU issued
system.switch_cpus.iq.FU_type_0::SimdSha256Hash            0      0.00%     84.85% # Type of FU issued
system.switch_cpus.iq.FU_type_0::SimdSha256Hash2            0      0.00%     84.85% # Type of FU issued
system.switch_cpus.iq.FU_type_0::SimdShaSigma2            0      0.00%     84.85% # Type of FU issued
system.switch_cpus.iq.FU_type_0::SimdShaSigma3            0      0.00%     84.85% # Type of FU issued
system.switch_cpus.iq.FU_type_0::SimdPredAlu            0      0.00%     84.85% # Type of FU issued
system.switch_cpus.iq.FU_type_0::MemRead      3723550     11.73%     96.58% # Type of FU issued
system.switch_cpus.iq.FU_type_0::MemWrite      1048340      3.30%     99.88% # Type of FU issued
system.switch_cpus.iq.FU_type_0::FloatMemRead        19352      0.06%     99.94% # Type of FU issued
system.switch_cpus.iq.FU_type_0::FloatMemWrite        18411      0.06%    100.00% # Type of FU issued
system.switch_cpus.iq.FU_type_0::IprAccess            0      0.00%    100.00% # Type of FU issued
system.switch_cpus.iq.FU_type_0::InstPrefetch            0      0.00%    100.00% # Type of FU issued
system.switch_cpus.iq.FU_type_0::total       31756281                       # Type of FU issued
system.switch_cpus.iq.fp_alu_accesses           38342                       # Number of floating point alu accesses
system.switch_cpus.iq.fp_inst_queue_reads        76119                       # Number of floating instruction queue reads
system.switch_cpus.iq.fp_inst_queue_wakeup_accesses        36783                       # Number of floating instruction queue wakeup accesses
system.switch_cpus.iq.fp_inst_queue_writes        49882                       # Number of floating instruction queue writes
system.switch_cpus.iq.fu_busy_cnt              485024                       # FU busy when requested
system.switch_cpus.iq.fu_busy_rate           0.015273                       # FU busy rate (busy events/executed inst)
system.switch_cpus.iq.fu_full::No_OpClass            0      0.00%      0.00% # attempts to use FU when none available
system.switch_cpus.iq.fu_full::IntAlu          438694     90.45%     90.45% # attempts to use FU when none available
system.switch_cpus.iq.fu_full::IntMult              0      0.00%     90.45% # attempts to use FU when none available
system.switch_cpus.iq.fu_full::IntDiv               0      0.00%     90.45% # attempts to use FU when none available
system.switch_cpus.iq.fu_full::FloatAdd             0      0.00%     90.45% # attempts to use FU when none available
system.switch_cpus.iq.fu_full::FloatCmp             0      0.00%     90.45% # attempts to use FU when none available
system.switch_cpus.iq.fu_full::FloatCvt             0      0.00%     90.45% # attempts to use FU when none available
system.switch_cpus.iq.fu_full::FloatMult            0      0.00%     90.45% # attempts to use FU when none available
system.switch_cpus.iq.fu_full::FloatMultAcc            0      0.00%     90.45% # attempts to use FU when none available
system.switch_cpus.iq.fu_full::FloatDiv             0      0.00%     90.45% # attempts to use FU when none available
system.switch_cpus.iq.fu_full::FloatMisc            0      0.00%     90.45% # attempts to use FU when none available
system.switch_cpus.iq.fu_full::FloatSqrt            0      0.00%     90.45% # attempts to use FU when none available
system.switch_cpus.iq.fu_full::SimdAdd              0      0.00%     90.45% # attempts to use FU when none available
system.switch_cpus.iq.fu_full::SimdAddAcc            0      0.00%     90.45% # attempts to use FU when none available
system.switch_cpus.iq.fu_full::SimdAlu              0      0.00%     90.45% # attempts to use FU when none available
system.switch_cpus.iq.fu_full::SimdCmp              0      0.00%     90.45% # attempts to use FU when none available
system.switch_cpus.iq.fu_full::SimdCvt              0      0.00%     90.45% # attempts to use FU when none available
system.switch_cpus.iq.fu_full::SimdMisc             0      0.00%     90.45% # attempts to use FU when none available
system.switch_cpus.iq.fu_full::SimdMult             0      0.00%     90.45% # attempts to use FU when none available
system.switch_cpus.iq.fu_full::SimdMultAcc            0      0.00%     90.45% # attempts to use FU when none available
system.switch_cpus.iq.fu_full::SimdShift            0      0.00%     90.45% # attempts to use FU when none available
system.switch_cpus.iq.fu_full::SimdShiftAcc            0      0.00%     90.45% # attempts to use FU when none available
system.switch_cpus.iq.fu_full::SimdDiv              0      0.00%     90.45% # attempts to use FU when none available
system.switch_cpus.iq.fu_full::SimdSqrt             0      0.00%     90.45% # attempts to use FU when none available
system.switch_cpus.iq.fu_full::SimdFloatAdd            0      0.00%     90.45% # attempts to use FU when none available
system.switch_cpus.iq.fu_full::SimdFloatAlu            0      0.00%     90.45% # attempts to use FU when none available
system.switch_cpus.iq.fu_full::SimdFloatCmp            0      0.00%     90.45% # attempts to use FU when none available
system.switch_cpus.iq.fu_full::SimdFloatCvt            0      0.00%     90.45% # attempts to use FU when none available
system.switch_cpus.iq.fu_full::SimdFloatDiv            0      0.00%     90.45% # attempts to use FU when none available
system.switch_cpus.iq.fu_full::SimdFloatMisc            0      0.00%     90.45% # attempts to use FU when none available
system.switch_cpus.iq.fu_full::SimdFloatMult            0      0.00%     90.45% # attempts to use FU when none available
system.switch_cpus.iq.fu_full::SimdFloatMultAcc            0      0.00%     90.45% # attempts to use FU when none available
system.switch_cpus.iq.fu_full::SimdFloatSqrt            0      0.00%     90.45% # attempts to use FU when none available
system.switch_cpus.iq.fu_full::SimdReduceAdd            0      0.00%     90.45% # attempts to use FU when none available
system.switch_cpus.iq.fu_full::SimdReduceAlu            0      0.00%     90.45% # attempts to use FU when none available
system.switch_cpus.iq.fu_full::SimdReduceCmp            0      0.00%     90.45% # attempts to use FU when none available
system.switch_cpus.iq.fu_full::SimdFloatReduceAdd            0      0.00%     90.45% # attempts to use FU when none available
system.switch_cpus.iq.fu_full::SimdFloatReduceCmp            0      0.00%     90.45% # attempts to use FU when none available
system.switch_cpus.iq.fu_full::SimdAes              0      0.00%     90.45% # attempts to use FU when none available
system.switch_cpus.iq.fu_full::SimdAesMix            0      0.00%     90.45% # attempts to use FU when none available
system.switch_cpus.iq.fu_full::SimdSha1Hash            0      0.00%     90.45% # attempts to use FU when none available
system.switch_cpus.iq.fu_full::SimdSha1Hash2            0      0.00%     90.45% # attempts to use FU when none available
system.switch_cpus.iq.fu_full::SimdSha256Hash            0      0.00%     90.45% # attempts to use FU when none available
system.switch_cpus.iq.fu_full::SimdSha256Hash2            0      0.00%     90.45% # attempts to use FU when none available
system.switch_cpus.iq.fu_full::SimdShaSigma2            0      0.00%     90.45% # attempts to use FU when none available
system.switch_cpus.iq.fu_full::SimdShaSigma3            0      0.00%     90.45% # attempts to use FU when none available
system.switch_cpus.iq.fu_full::SimdPredAlu            0      0.00%     90.45% # attempts to use FU when none available
system.switch_cpus.iq.fu_full::MemRead          45598      9.40%     99.85% # attempts to use FU when none available
system.switch_cpus.iq.fu_full::MemWrite           153      0.03%     99.88% # attempts to use FU when none available
system.switch_cpus.iq.fu_full::FloatMemRead          554      0.11%     99.99% # attempts to use FU when none available
system.switch_cpus.iq.fu_full::FloatMemWrite           25      0.01%    100.00% # attempts to use FU when none available
system.switch_cpus.iq.fu_full::IprAccess            0      0.00%    100.00% # attempts to use FU when none available
system.switch_cpus.iq.fu_full::InstPrefetch            0      0.00%    100.00% # attempts to use FU when none available
system.switch_cpus.iq.int_alu_accesses       32077075                       # Number of integer alu accesses
system.switch_cpus.iq.int_inst_queue_reads     81929882                       # Number of integer instruction queue reads
system.switch_cpus.iq.int_inst_queue_wakeup_accesses     29550715                       # Number of integer instruction queue wakeup accesses
system.switch_cpus.iq.int_inst_queue_writes     54053260                       # Number of integer instruction queue writes
system.switch_cpus.iq.iqInstsAdded           35463507                       # Number of instructions added to the IQ (excludes non-spec)
system.switch_cpus.iq.iqInstsIssued          31756281                       # Number of instructions issued
system.switch_cpus.iq.iqSquashedInstsExamined     18638349                       # Number of squashed instructions iterated over during squash; mainly for profiling
system.switch_cpus.iq.iqSquashedInstsIssued       102899                       # Number of squashed instructions issued
system.switch_cpus.iq.iqSquashedOperandsExamined     18758810                       # Number of squashed operands that are examined and possibly removed from graph
system.switch_cpus.iq.issued_per_cycle::samples     17905520                       # Number of insts issued each cycle
system.switch_cpus.iq.issued_per_cycle::mean     1.773547                       # Number of insts issued each cycle
system.switch_cpus.iq.issued_per_cycle::stdev     2.272547                       # Number of insts issued each cycle
system.switch_cpus.iq.issued_per_cycle::underflows            0      0.00%      0.00% # Number of insts issued each cycle
system.switch_cpus.iq.issued_per_cycle::0      9447281     52.76%     52.76% # Number of insts issued each cycle
system.switch_cpus.iq.issued_per_cycle::1      1027996      5.74%     58.50% # Number of insts issued each cycle
system.switch_cpus.iq.issued_per_cycle::2      1528706      8.54%     67.04% # Number of insts issued each cycle
system.switch_cpus.iq.issued_per_cycle::3      1501770      8.39%     75.43% # Number of insts issued each cycle
system.switch_cpus.iq.issued_per_cycle::4      1510750      8.44%     83.87% # Number of insts issued each cycle
system.switch_cpus.iq.issued_per_cycle::5      1171924      6.55%     90.41% # Number of insts issued each cycle
system.switch_cpus.iq.issued_per_cycle::6       938974      5.24%     95.65% # Number of insts issued each cycle
system.switch_cpus.iq.issued_per_cycle::7       595853      3.33%     98.98% # Number of insts issued each cycle
system.switch_cpus.iq.issued_per_cycle::8       182266      1.02%    100.00% # Number of insts issued each cycle
system.switch_cpus.iq.issued_per_cycle::overflows            0      0.00%    100.00% # Number of insts issued each cycle
system.switch_cpus.iq.issued_per_cycle::min_value            0                       # Number of insts issued each cycle
system.switch_cpus.iq.issued_per_cycle::max_value            8                       # Number of insts issued each cycle
system.switch_cpus.iq.issued_per_cycle::total     17905520                       # Number of insts issued each cycle
system.switch_cpus.iq.rate                   1.773279                       # Inst issue rate
system.switch_cpus.iq.vec_alu_accesses              0                       # Number of vector alu accesses
system.switch_cpus.iq.vec_inst_queue_reads            0                       # Number of vector instruction queue reads
system.switch_cpus.iq.vec_inst_queue_wakeup_accesses            0                       # Number of vector instruction queue wakeup accesses
system.switch_cpus.iq.vec_inst_queue_writes            0                       # Number of vector instruction queue writes
system.switch_cpus.itb.rdAccesses                   0                       # TLB accesses on read requests
system.switch_cpus.itb.rdMisses                     0                       # TLB misses on read requests
system.switch_cpus.itb.wrAccesses             4557545                       # TLB accesses on write requests
system.switch_cpus.itb.wrMisses                     4                       # TLB misses on write requests
system.switch_cpus.memDep0.conflictingLoads       466713                       # Number of conflicting loads.
system.switch_cpus.memDep0.conflictingStores       569067                       # Number of conflicting stores.
system.switch_cpus.memDep0.insertedLoads      3914867                       # Number of loads inserted to the mem dependence unit.
system.switch_cpus.memDep0.insertedStores      1499486                       # Number of stores inserted to the mem dependence unit.
system.switch_cpus.misc_regfile_reads        12557054                       # number of misc regfile reads
system.switch_cpus.misc_regfile_writes              1                       # number of misc regfile writes
system.switch_cpus.numCycles                 17908229                       # number of cpu cycles simulated
system.switch_cpus.numWorkItemsCompleted            0                       # number of work items this cpu completed
system.switch_cpus.numWorkItemsStarted              0                       # number of work items this cpu started
system.switch_cpus.rename.BlockCycles         6280728                       # Number of cycles rename is blocking
system.switch_cpus.rename.CommittedMaps      20843697                       # Number of HB maps that are committed
system.switch_cpus.rename.IQFullEvents          87264                       # Number of times rename has blocked due to IQ full
system.switch_cpus.rename.IdleCycles          4300281                       # Number of cycles rename is idle
system.switch_cpus.rename.LQFullEvents              5                       # Number of times rename has blocked due to LQ full
system.switch_cpus.rename.ROBFullEvents        164902                       # Number of times rename has blocked due to ROB full
system.switch_cpus.rename.RenameLookups      98173685                       # Number of register rename lookups that rename has made
system.switch_cpus.rename.RenamedInsts       40078122                       # Number of instructions processed by rename
system.switch_cpus.rename.RenamedOperands     49437775                       # Number of destination operands rename has renamed
system.switch_cpus.rename.RunCycles           6404316                       # Number of cycles rename is running
system.switch_cpus.rename.SQFullEvents            307                       # Number of times rename has blocked due to SQ full
system.switch_cpus.rename.SquashCycles         566426                       # Number of cycles rename is squashing
system.switch_cpus.rename.UnblockCycles        353764                       # Number of cycles rename is unblocking
system.switch_cpus.rename.UndoneMaps         28593856                       # Number of HB maps that are undone due to squashing
system.switch_cpus.rename.fp_rename_lookups        23092                       # Number of floating rename lookups
system.switch_cpus.rename.int_rename_lookups     56469305                       # Number of integer rename lookups
system.switch_cpus.rename.serializeStallCycles            0                       # count of cycles rename stalled for serializing inst
system.switch_cpus.rename.serializingInsts            0                       # count of serializing insts renamed
system.switch_cpus.rename.skidInsts           1360342                       # count of insts added to the skid buffer
system.switch_cpus.rename.tempSerializingInsts            0                       # count of temporary serializing insts renamed
system.switch_cpus.rob.rob_reads             49523741                       # The number of ROB reads
system.switch_cpus.rob.rob_writes            73801006                       # The number of ROB writes
system.switch_cpus.timesIdled                      27                       # Number of times that the entire CPU went into an idle state and unscheduled itself
system.tol2bus.snoop_filter.hit_multi_requests            0                       # Number of requests hitting in the snoop filter with multiple (>1) holders of the requested data.
system.tol2bus.snoop_filter.hit_multi_snoops            0                       # Number of snoops hitting in the snoop filter with multiple (>1) holders of the requested data.
system.tol2bus.snoop_filter.hit_single_requests       296622                       # Number of requests hitting in the snoop filter with a single holder of the requested data.
system.tol2bus.snoop_filter.hit_single_snoops        36013                       # Number of snoops hitting in the snoop filter with a single holder of the requested data.
system.tol2bus.snoop_filter.tot_requests       594325                       # Total number of requests made to the snoop filter.
system.tol2bus.snoop_filter.tot_snoops          36013                       # Total number of snoops made to the snoop filter.
system.membus.pwrStateResidencyTicks::UNDEFINED 926048557407000                       # Cumulative time (in ticks) in various power states
system.membus.trans_dist::ReadResp              98970                       # Transaction distribution
system.membus.trans_dist::WritebackDirty         5019                       # Transaction distribution
system.membus.trans_dist::CleanEvict            85633                       # Transaction distribution
system.membus.trans_dist::ReadExReq                 7                       # Transaction distribution
system.membus.trans_dist::ReadExResp                7                       # Transaction distribution
system.membus.trans_dist::ReadSharedReq         98971                       # Transaction distribution
system.membus.pkt_count_system.l2.mem_side::system.mem_ctrls.port       288607                       # Packet count per connected master and slave (bytes)
system.membus.pkt_count_system.l2.mem_side::total       288607                       # Packet count per connected master and slave (bytes)
system.membus.pkt_count::total                 288607                       # Packet count per connected master and slave (bytes)
system.membus.pkt_size_system.l2.mem_side::system.mem_ctrls.port      6655744                       # Cumulative packet size per connected master and slave (bytes)
system.membus.pkt_size_system.l2.mem_side::total      6655744                       # Cumulative packet size per connected master and slave (bytes)
system.membus.pkt_size::total                 6655744                       # Cumulative packet size per connected master and slave (bytes)
system.membus.snoops                                0                       # Total snoops (count)
system.membus.snoopTraffic                          0                       # Total snoop traffic (bytes)
system.membus.snoop_fanout::samples             98978                       # Request fanout histogram
system.membus.snoop_fanout::mean                    0                       # Request fanout histogram
system.membus.snoop_fanout::stdev                   0                       # Request fanout histogram
system.membus.snoop_fanout::underflows              0      0.00%      0.00% # Request fanout histogram
system.membus.snoop_fanout::0                   98978    100.00%    100.00% # Request fanout histogram
system.membus.snoop_fanout::1                       0      0.00%    100.00% # Request fanout histogram
system.membus.snoop_fanout::overflows               0      0.00%    100.00% # Request fanout histogram
system.membus.snoop_fanout::min_value               0                       # Request fanout histogram
system.membus.snoop_fanout::max_value               0                       # Request fanout histogram
system.membus.snoop_fanout::total               98978                       # Request fanout histogram
system.membus.reqLayer2.occupancy           233105000                       # Layer occupancy (ticks)
system.membus.reqLayer2.utilization               2.6                       # Layer utilization (%)
system.membus.respLayer1.occupancy          529614250                       # Layer occupancy (ticks)
system.membus.respLayer1.utilization              5.9                       # Layer utilization (%)
system.switch_cpus.pwrStateResidencyTicks::OFF   8954124500                       # Cumulative time (in ticks) in various power states
system.switch_cpus.dtb.walker.pwrStateResidencyTicks::UNDEFINED 926048557407000                       # Cumulative time (in ticks) in various power states
system.switch_cpus.itb.walker.pwrStateResidencyTicks::UNDEFINED 926048557407000                       # Cumulative time (in ticks) in various power states
system.tol2bus.pwrStateResidencyTicks::UNDEFINED 926048557407000                       # Cumulative time (in ticks) in various power states
system.tol2bus.trans_dist::ReadResp            297146                       # Transaction distribution
system.tol2bus.trans_dist::WritebackDirty        22458                       # Transaction distribution
system.tol2bus.trans_dist::CleanEvict          367056                       # Transaction distribution
system.tol2bus.trans_dist::ReadExReq              554                       # Transaction distribution
system.tol2bus.trans_dist::ReadExResp             554                       # Transaction distribution
system.tol2bus.trans_dist::ReadCleanReq            53                       # Transaction distribution
system.tol2bus.trans_dist::ReadSharedReq       297096                       # Transaction distribution
system.tol2bus.pkt_count_system.cpu.icache.mem_side::system.l2.cpu_side          106                       # Packet count per connected master and slave (bytes)
system.tol2bus.pkt_count_system.cpu.dcache.mem_side::system.l2.cpu_side       891919                       # Packet count per connected master and slave (bytes)
system.tol2bus.pkt_count::total                892025                       # Packet count per connected master and slave (bytes)
system.tol2bus.pkt_size_system.cpu.icache.mem_side::system.l2.cpu_side         3392                       # Cumulative packet size per connected master and slave (bytes)
system.tol2bus.pkt_size_system.cpu.dcache.mem_side::system.l2.cpu_side     20165504                       # Cumulative packet size per connected master and slave (bytes)
system.tol2bus.pkt_size::total               20168896                       # Cumulative packet size per connected master and slave (bytes)
system.tol2bus.snoops                           92892                       # Total snoops (count)
system.tol2bus.snoopTraffic                    321216                       # Total snoop traffic (bytes)
system.tol2bus.snoop_fanout::samples           390595                       # Request fanout histogram
system.tol2bus.snoop_fanout::mean            0.092200                       # Request fanout histogram
system.tol2bus.snoop_fanout::stdev           0.289309                       # Request fanout histogram
system.tol2bus.snoop_fanout::underflows             0      0.00%      0.00% # Request fanout histogram
system.tol2bus.snoop_fanout::0                 354582     90.78%     90.78% # Request fanout histogram
system.tol2bus.snoop_fanout::1                  36013      9.22%    100.00% # Request fanout histogram
system.tol2bus.snoop_fanout::2                      0      0.00%    100.00% # Request fanout histogram
system.tol2bus.snoop_fanout::3                      0      0.00%    100.00% # Request fanout histogram
system.tol2bus.snoop_fanout::4                      0      0.00%    100.00% # Request fanout histogram
system.tol2bus.snoop_fanout::overflows              0      0.00%    100.00% # Request fanout histogram
system.tol2bus.snoop_fanout::min_value              0                       # Request fanout histogram
system.tol2bus.snoop_fanout::max_value              1                       # Request fanout histogram
system.tol2bus.snoop_fanout::total             390595                       # Request fanout histogram
system.tol2bus.reqLayer0.occupancy          314599500                       # Layer occupancy (ticks)
system.tol2bus.reqLayer0.utilization              3.5                       # Layer utilization (%)
system.tol2bus.respLayer1.occupancy         446467500                       # Layer occupancy (ticks)
system.tol2bus.respLayer1.utilization             5.0                       # Layer utilization (%)
system.tol2bus.respLayer0.occupancy             76500                       # Layer occupancy (ticks)
system.tol2bus.respLayer0.utilization             0.0                       # Layer utilization (%)
system.voltage_domain.voltage                       1                       # Voltage in Volts
system.clk_domain.clock                          1000                       # Clock period in ticks
system.l2.pwrStateResidencyTicks::UNDEFINED 926048557407000                       # Cumulative time (in ticks) in various power states
system.l2.demand_hits::.switch_cpus.data       198724                       # number of demand (read+write) hits
system.l2.demand_hits::total                   198724                       # number of demand (read+write) hits
system.l2.overall_hits::.switch_cpus.data       198724                       # number of overall hits
system.l2.overall_hits::total                  198724                       # number of overall hits
system.l2.demand_misses::.cpu.inst                  2                       # number of demand (read+write) misses
system.l2.demand_misses::.cpu.data                  2                       # number of demand (read+write) misses
system.l2.demand_misses::.switch_cpus.inst           51                       # number of demand (read+write) misses
system.l2.demand_misses::.switch_cpus.data        98924                       # number of demand (read+write) misses
system.l2.demand_misses::total                  98979                       # number of demand (read+write) misses
system.l2.overall_misses::.cpu.inst                 2                       # number of overall misses
system.l2.overall_misses::.cpu.data                 2                       # number of overall misses
system.l2.overall_misses::.switch_cpus.inst           51                       # number of overall misses
system.l2.overall_misses::.switch_cpus.data        98924                       # number of overall misses
system.l2.overall_misses::total                 98979                       # number of overall misses
system.l2.demand_miss_latency::.switch_cpus.inst      4015500                       # number of demand (read+write) miss cycles
system.l2.demand_miss_latency::.switch_cpus.data   8607010500                       # number of demand (read+write) miss cycles
system.l2.demand_miss_latency::total       8611026000                       # number of demand (read+write) miss cycles
system.l2.overall_miss_latency::.switch_cpus.inst      4015500                       # number of overall miss cycles
system.l2.overall_miss_latency::.switch_cpus.data   8607010500                       # number of overall miss cycles
system.l2.overall_miss_latency::total      8611026000                       # number of overall miss cycles
system.l2.demand_accesses::.cpu.inst                2                       # number of demand (read+write) accesses
system.l2.demand_accesses::.cpu.data                2                       # number of demand (read+write) accesses
system.l2.demand_accesses::.switch_cpus.inst           51                       # number of demand (read+write) accesses
system.l2.demand_accesses::.switch_cpus.data       297648                       # number of demand (read+write) accesses
system.l2.demand_accesses::total               297703                       # number of demand (read+write) accesses
system.l2.overall_accesses::.cpu.inst               2                       # number of overall (read+write) accesses
system.l2.overall_accesses::.cpu.data               2                       # number of overall (read+write) accesses
system.l2.overall_accesses::.switch_cpus.inst           51                       # number of overall (read+write) accesses
system.l2.overall_accesses::.switch_cpus.data       297648                       # number of overall (read+write) accesses
system.l2.overall_accesses::total              297703                       # number of overall (read+write) accesses
system.l2.demand_miss_rate::.cpu.inst               1                       # miss rate for demand accesses
system.l2.demand_miss_rate::.cpu.data               1                       # miss rate for demand accesses
system.l2.demand_miss_rate::.switch_cpus.inst            1                       # miss rate for demand accesses
system.l2.demand_miss_rate::.switch_cpus.data     0.332352                       # miss rate for demand accesses
system.l2.demand_miss_rate::total            0.332476                       # miss rate for demand accesses
system.l2.overall_miss_rate::.cpu.inst              1                       # miss rate for overall accesses
system.l2.overall_miss_rate::.cpu.data              1                       # miss rate for overall accesses
system.l2.overall_miss_rate::.switch_cpus.inst            1                       # miss rate for overall accesses
system.l2.overall_miss_rate::.switch_cpus.data     0.332352                       # miss rate for overall accesses
system.l2.overall_miss_rate::total           0.332476                       # miss rate for overall accesses
system.l2.demand_avg_miss_latency::.switch_cpus.inst 78735.294118                       # average overall miss latency
system.l2.demand_avg_miss_latency::.switch_cpus.data 87006.292710                       # average overall miss latency
system.l2.demand_avg_miss_latency::total 86998.514836                       # average overall miss latency
system.l2.overall_avg_miss_latency::.switch_cpus.inst 78735.294118                       # average overall miss latency
system.l2.overall_avg_miss_latency::.switch_cpus.data 87006.292710                       # average overall miss latency
system.l2.overall_avg_miss_latency::total 86998.514836                       # average overall miss latency
system.l2.blocked_cycles::no_mshrs                  0                       # number of cycles access was blocked
system.l2.blocked_cycles::no_targets                0                       # number of cycles access was blocked
system.l2.blocked::no_mshrs                         0                       # number of cycles access was blocked
system.l2.blocked::no_targets                       0                       # number of cycles access was blocked
system.l2.avg_blocked_cycles::no_mshrs            nan                       # average number of cycles each access was blocked
system.l2.avg_blocked_cycles::no_targets          nan                       # average number of cycles each access was blocked
system.l2.writebacks::.writebacks                5019                       # number of writebacks
system.l2.writebacks::total                      5019                       # number of writebacks
system.l2.demand_mshr_misses::.switch_cpus.inst           51                       # number of demand (read+write) MSHR misses
system.l2.demand_mshr_misses::.switch_cpus.data        98924                       # number of demand (read+write) MSHR misses
system.l2.demand_mshr_misses::total             98975                       # number of demand (read+write) MSHR misses
system.l2.overall_mshr_misses::.switch_cpus.inst           51                       # number of overall MSHR misses
system.l2.overall_mshr_misses::.switch_cpus.data        98924                       # number of overall MSHR misses
system.l2.overall_mshr_misses::total            98975                       # number of overall MSHR misses
system.l2.demand_mshr_miss_latency::.switch_cpus.inst      3505500                       # number of demand (read+write) MSHR miss cycles
system.l2.demand_mshr_miss_latency::.switch_cpus.data   7617790500                       # number of demand (read+write) MSHR miss cycles
system.l2.demand_mshr_miss_latency::total   7621296000                       # number of demand (read+write) MSHR miss cycles
system.l2.overall_mshr_miss_latency::.switch_cpus.inst      3505500                       # number of overall MSHR miss cycles
system.l2.overall_mshr_miss_latency::.switch_cpus.data   7617790500                       # number of overall MSHR miss cycles
system.l2.overall_mshr_miss_latency::total   7621296000                       # number of overall MSHR miss cycles
system.l2.demand_mshr_miss_rate::.switch_cpus.inst            1                       # mshr miss rate for demand accesses
system.l2.demand_mshr_miss_rate::.switch_cpus.data     0.332352                       # mshr miss rate for demand accesses
system.l2.demand_mshr_miss_rate::total       0.332462                       # mshr miss rate for demand accesses
system.l2.overall_mshr_miss_rate::.switch_cpus.inst            1                       # mshr miss rate for overall accesses
system.l2.overall_mshr_miss_rate::.switch_cpus.data     0.332352                       # mshr miss rate for overall accesses
system.l2.overall_mshr_miss_rate::total      0.332462                       # mshr miss rate for overall accesses
system.l2.demand_avg_mshr_miss_latency::.switch_cpus.inst 68735.294118                       # average overall mshr miss latency
system.l2.demand_avg_mshr_miss_latency::.switch_cpus.data 77006.494885                       # average overall mshr miss latency
system.l2.demand_avg_mshr_miss_latency::total 77002.232887                       # average overall mshr miss latency
system.l2.overall_avg_mshr_miss_latency::.switch_cpus.inst 68735.294118                       # average overall mshr miss latency
system.l2.overall_avg_mshr_miss_latency::.switch_cpus.data 77006.494885                       # average overall mshr miss latency
system.l2.overall_avg_mshr_miss_latency::total 77002.232887                       # average overall mshr miss latency
system.l2.replacements                          92892                       # number of replacements
system.l2.WritebackDirty_hits::.writebacks        17439                       # number of WritebackDirty hits
system.l2.WritebackDirty_hits::total            17439                       # number of WritebackDirty hits
system.l2.WritebackDirty_accesses::.writebacks        17439                       # number of WritebackDirty accesses(hits+misses)
system.l2.WritebackDirty_accesses::total        17439                       # number of WritebackDirty accesses(hits+misses)
system.l2.CleanEvict_mshr_misses::.writebacks        33775                       # number of CleanEvict MSHR misses
system.l2.CleanEvict_mshr_misses::total         33775                       # number of CleanEvict MSHR misses
system.l2.CleanEvict_mshr_miss_rate::.writebacks          inf                       # mshr miss rate for CleanEvict accesses
system.l2.CleanEvict_mshr_miss_rate::total          inf                       # mshr miss rate for CleanEvict accesses
system.l2.ReadExReq_hits::.switch_cpus.data          547                       # number of ReadExReq hits
system.l2.ReadExReq_hits::total                   547                       # number of ReadExReq hits
system.l2.ReadExReq_misses::.switch_cpus.data            7                       # number of ReadExReq misses
system.l2.ReadExReq_misses::total                   7                       # number of ReadExReq misses
system.l2.ReadExReq_miss_latency::.switch_cpus.data       528000                       # number of ReadExReq miss cycles
system.l2.ReadExReq_miss_latency::total        528000                       # number of ReadExReq miss cycles
system.l2.ReadExReq_accesses::.switch_cpus.data          554                       # number of ReadExReq accesses(hits+misses)
system.l2.ReadExReq_accesses::total               554                       # number of ReadExReq accesses(hits+misses)
system.l2.ReadExReq_miss_rate::.switch_cpus.data     0.012635                       # miss rate for ReadExReq accesses
system.l2.ReadExReq_miss_rate::total         0.012635                       # miss rate for ReadExReq accesses
system.l2.ReadExReq_avg_miss_latency::.switch_cpus.data 75428.571429                       # average ReadExReq miss latency
system.l2.ReadExReq_avg_miss_latency::total 75428.571429                       # average ReadExReq miss latency
system.l2.ReadExReq_mshr_misses::.switch_cpus.data            7                       # number of ReadExReq MSHR misses
system.l2.ReadExReq_mshr_misses::total              7                       # number of ReadExReq MSHR misses
system.l2.ReadExReq_mshr_miss_latency::.switch_cpus.data       458000                       # number of ReadExReq MSHR miss cycles
system.l2.ReadExReq_mshr_miss_latency::total       458000                       # number of ReadExReq MSHR miss cycles
system.l2.ReadExReq_mshr_miss_rate::.switch_cpus.data     0.012635                       # mshr miss rate for ReadExReq accesses
system.l2.ReadExReq_mshr_miss_rate::total     0.012635                       # mshr miss rate for ReadExReq accesses
system.l2.ReadExReq_avg_mshr_miss_latency::.switch_cpus.data 65428.571429                       # average ReadExReq mshr miss latency
system.l2.ReadExReq_avg_mshr_miss_latency::total 65428.571429                       # average ReadExReq mshr miss latency
system.l2.ReadCleanReq_misses::.cpu.inst            2                       # number of ReadCleanReq misses
system.l2.ReadCleanReq_misses::.switch_cpus.inst           51                       # number of ReadCleanReq misses
system.l2.ReadCleanReq_misses::total               53                       # number of ReadCleanReq misses
system.l2.ReadCleanReq_miss_latency::.switch_cpus.inst      4015500                       # number of ReadCleanReq miss cycles
system.l2.ReadCleanReq_miss_latency::total      4015500                       # number of ReadCleanReq miss cycles
system.l2.ReadCleanReq_accesses::.cpu.inst            2                       # number of ReadCleanReq accesses(hits+misses)
system.l2.ReadCleanReq_accesses::.switch_cpus.inst           51                       # number of ReadCleanReq accesses(hits+misses)
system.l2.ReadCleanReq_accesses::total             53                       # number of ReadCleanReq accesses(hits+misses)
system.l2.ReadCleanReq_miss_rate::.cpu.inst            1                       # miss rate for ReadCleanReq accesses
system.l2.ReadCleanReq_miss_rate::.switch_cpus.inst            1                       # miss rate for ReadCleanReq accesses
system.l2.ReadCleanReq_miss_rate::total             1                       # miss rate for ReadCleanReq accesses
system.l2.ReadCleanReq_avg_miss_latency::.switch_cpus.inst 78735.294118                       # average ReadCleanReq miss latency
system.l2.ReadCleanReq_avg_miss_latency::total 75764.150943                       # average ReadCleanReq miss latency
system.l2.ReadCleanReq_mshr_misses::.switch_cpus.inst           51                       # number of ReadCleanReq MSHR misses
system.l2.ReadCleanReq_mshr_misses::total           51                       # number of ReadCleanReq MSHR misses
system.l2.ReadCleanReq_mshr_miss_latency::.switch_cpus.inst      3505500                       # number of ReadCleanReq MSHR miss cycles
system.l2.ReadCleanReq_mshr_miss_latency::total      3505500                       # number of ReadCleanReq MSHR miss cycles
system.l2.ReadCleanReq_mshr_miss_rate::.switch_cpus.inst            1                       # mshr miss rate for ReadCleanReq accesses
system.l2.ReadCleanReq_mshr_miss_rate::total     0.962264                       # mshr miss rate for ReadCleanReq accesses
system.l2.ReadCleanReq_avg_mshr_miss_latency::.switch_cpus.inst 68735.294118                       # average ReadCleanReq mshr miss latency
system.l2.ReadCleanReq_avg_mshr_miss_latency::total 68735.294118                       # average ReadCleanReq mshr miss latency
system.l2.ReadSharedReq_hits::.switch_cpus.data       198177                       # number of ReadSharedReq hits
system.l2.ReadSharedReq_hits::total            198177                       # number of ReadSharedReq hits
system.l2.ReadSharedReq_misses::.cpu.data            2                       # number of ReadSharedReq misses
[...]
system.cpu.icache.tags.occ_task_id_percent::1024     0.115234                       # Percentage of cache occupancy per task id
system.cpu.icache.tags.tag_accesses          29682315                       # Number of tag accesses
system.cpu.icache.tags.data_accesses         29682315                       # Number of data accesses
system.cpu.dtb.walker.pwrStateResidencyTicks::UNDEFINED 926110254942000                       # Cumulative time (in ticks) in various power states
system.cpu.interrupts.clk_domain.clock           8000                       # Clock period in ticks
system.cpu.itb_walker_cache.pwrStateResidencyTicks::UNDEFINED 926110254942000                       # Cumulative time (in ticks) in various power states
system.cpu.itb_walker_cache.blocked_cycles::no_mshrs            0                       # number of cycles access was blocked
system.cpu.itb_walker_cache.blocked_cycles::no_targets            0                       # number of cycles access was blocked
system.cpu.itb_walker_cache.blocked::no_mshrs            0                       # number of cycles access was blocked
system.cpu.itb_walker_cache.blocked::no_targets            0                       # number of cycles access was blocked
system.cpu.itb_walker_cache.avg_blocked_cycles::no_mshrs          nan                       # average number of cycles each access was blocked
system.cpu.itb_walker_cache.avg_blocked_cycles::no_targets          nan                       # average number of cycles each access was blocked
system.cpu.itb_walker_cache.replacements            0                       # number of replacements
system.cpu.itb_walker_cache.tags.pwrStateResidencyTicks::UNDEFINED 926110254942000                       # Cumulative time (in ticks) in various power states
system.cpu.itb_walker_cache.tags.tagsinuse            0                       # Cycle average of tags in use
system.cpu.itb_walker_cache.tags.total_refs            0                       # Total number of references to valid blocks.
system.cpu.itb_walker_cache.tags.sampled_refs            0                       # Sample count of references to valid blocks.
system.cpu.itb_walker_cache.tags.avg_refs          nan                       # Average number of references to valid blocks.
system.cpu.itb_walker_cache.tags.warmup_cycle            0                       # Cycle when the warmup percentage was hit.
system.cpu.itb_walker_cache.tags.tag_accesses            0                       # Number of tag accesses
system.cpu.itb_walker_cache.tags.data_accesses            0                       # Number of data accesses
system.cpu.itb.walker.pwrStateResidencyTicks::UNDEFINED 926110254942000                       # Cumulative time (in ticks) in various power states
system.cpu.dtb_walker_cache.pwrStateResidencyTicks::UNDEFINED 926110254942000                       # Cumulative time (in ticks) in various power states
system.cpu.dtb_walker_cache.blocked_cycles::no_mshrs            0                       # number of cycles access was blocked
system.cpu.dtb_walker_cache.blocked_cycles::no_targets            0                       # number of cycles access was blocked
system.cpu.dtb_walker_cache.blocked::no_mshrs            0                       # number of cycles access was blocked
system.cpu.dtb_walker_cache.blocked::no_targets            0                       # number of cycles access was blocked
system.cpu.dtb_walker_cache.avg_blocked_cycles::no_mshrs          nan                       # average number of cycles each access was blocked
system.cpu.dtb_walker_cache.avg_blocked_cycles::no_targets          nan                       # average number of cycles each access was blocked
system.cpu.dtb_walker_cache.replacements            0                       # number of replacements
system.cpu.dtb_walker_cache.tags.pwrStateResidencyTicks::UNDEFINED 926110254942000                       # Cumulative time (in ticks) in various power states
system.cpu.dtb_walker_cache.tags.tagsinuse            0                       # Cycle average of tags in use
system.cpu.dtb_walker_cache.tags.total_refs            0                       # Total number of references to valid blocks.
system.cpu.dtb_walker_cache.tags.sampled_refs            0                       # Sample count of references to valid blocks.
system.cpu.dtb_walker_cache.tags.avg_refs          nan                       # Average number of references to valid blocks.
system.cpu.dtb_walker_cache.tags.warmup_cycle            0                       # Cycle when the warmup percentage was hit.
system.cpu.dtb_walker_cache.tags.tag_accesses            0                       # Number of tag accesses
system.cpu.dtb_walker_cache.tags.data_accesses            0                       # Number of data accesses
system.cpu.dcache.pwrStateResidencyTicks::UNDEFINED 926110254942000                       # Cumulative time (in ticks) in various power states
system.cpu.dcache.demand_hits::.switch_cpus.data     12149913                       # number of demand (read+write) hits
system.cpu.dcache.demand_hits::total         12149913                       # number of demand (read+write) hits
system.cpu.dcache.overall_hits::.switch_cpus.data     12149913                       # number of overall hits
system.cpu.dcache.overall_hits::total        12149913                       # number of overall hits
system.cpu.dcache.demand_misses::.cpu.data            2                       # number of demand (read+write) misses
system.cpu.dcache.demand_misses::.switch_cpus.data      1586760                       # number of demand (read+write) misses
system.cpu.dcache.demand_misses::total        1586762                       # number of demand (read+write) misses
system.cpu.dcache.overall_misses::.cpu.data            2                       # number of overall misses
system.cpu.dcache.overall_misses::.switch_cpus.data      1586760                       # number of overall misses
system.cpu.dcache.overall_misses::total       1586762                       # number of overall misses
system.cpu.dcache.demand_miss_latency::.switch_cpus.data  93189139500                       # number of demand (read+write) miss cycles
system.cpu.dcache.demand_miss_latency::total  93189139500                       # number of demand (read+write) miss cycles
system.cpu.dcache.overall_miss_latency::.switch_cpus.data  93189139500                       # number of overall miss cycles
system.cpu.dcache.overall_miss_latency::total  93189139500                       # number of overall miss cycles
system.cpu.dcache.demand_accesses::.cpu.data            2                       # number of demand (read+write) accesses
system.cpu.dcache.demand_accesses::.switch_cpus.data     13736673                       # number of demand (read+write) accesses
system.cpu.dcache.demand_accesses::total     13736675                       # number of demand (read+write) accesses
system.cpu.dcache.overall_accesses::.cpu.data            2                       # number of overall (read+write) accesses
system.cpu.dcache.overall_accesses::.switch_cpus.data     13736673                       # number of overall (read+write) accesses
system.cpu.dcache.overall_accesses::total     13736675                       # number of overall (read+write) accesses
system.cpu.dcache.demand_miss_rate::.cpu.data            1                       # miss rate for demand accesses
system.cpu.dcache.demand_miss_rate::.switch_cpus.data     0.115513                       # miss rate for demand accesses
system.cpu.dcache.demand_miss_rate::total     0.115513                       # miss rate for demand accesses
system.cpu.dcache.overall_miss_rate::.cpu.data            1                       # miss rate for overall accesses
system.cpu.dcache.overall_miss_rate::.switch_cpus.data     0.115513                       # miss rate for overall accesses
system.cpu.dcache.overall_miss_rate::total     0.115513                       # miss rate for overall accesses
system.cpu.dcache.demand_avg_miss_latency::.switch_cpus.data 58729.196287                       # average overall miss latency
system.cpu.dcache.demand_avg_miss_latency::total 58729.122263                       # average overall miss latency
system.cpu.dcache.overall_avg_miss_latency::.switch_cpus.data 58729.196287                       # average overall miss latency
system.cpu.dcache.overall_avg_miss_latency::total 58729.122263                       # average overall miss latency
system.cpu.dcache.blocked_cycles::no_mshrs      8893544                       # number of cycles access was blocked
system.cpu.dcache.blocked_cycles::no_targets          811                       # number of cycles access was blocked
system.cpu.dcache.blocked::no_mshrs            296300                       # number of cycles access was blocked
system.cpu.dcache.blocked::no_targets              28                       # number of cycles access was blocked
system.cpu.dcache.avg_blocked_cycles::no_mshrs    30.015336                       # average number of cycles each access was blocked
system.cpu.dcache.avg_blocked_cycles::no_targets    28.964286                       # average number of cycles each access was blocked
system.cpu.dcache.writebacks::.writebacks       534728                       # number of writebacks
system.cpu.dcache.writebacks::total            534728                       # number of writebacks
system.cpu.dcache.demand_mshr_hits::.switch_cpus.data       287639                       # number of demand (read+write) MSHR hits
system.cpu.dcache.demand_mshr_hits::total       287639                       # number of demand (read+write) MSHR hits
system.cpu.dcache.overall_mshr_hits::.switch_cpus.data       287639                       # number of overall MSHR hits
system.cpu.dcache.overall_mshr_hits::total       287639                       # number of overall MSHR hits
system.cpu.dcache.demand_mshr_misses::.switch_cpus.data      1299121                       # number of demand (read+write) MSHR misses
system.cpu.dcache.demand_mshr_misses::total      1299121                       # number of demand (read+write) MSHR misses
system.cpu.dcache.overall_mshr_misses::.switch_cpus.data      1299121                       # number of overall MSHR misses
system.cpu.dcache.overall_mshr_misses::total      1299121                       # number of overall MSHR misses
system.cpu.dcache.demand_mshr_miss_latency::.switch_cpus.data  79962500000                       # number of demand (read+write) MSHR miss cycles
system.cpu.dcache.demand_mshr_miss_latency::total  79962500000                       # number of demand (read+write) MSHR miss cycles
system.cpu.dcache.overall_mshr_miss_latency::.switch_cpus.data  79962500000                       # number of overall MSHR miss cycles
system.cpu.dcache.overall_mshr_miss_latency::total  79962500000                       # number of overall MSHR miss cycles
system.cpu.dcache.demand_mshr_miss_rate::.switch_cpus.data     0.094573                       # mshr miss rate for demand accesses
system.cpu.dcache.demand_mshr_miss_rate::total     0.094573                       # mshr miss rate for demand accesses
system.cpu.dcache.overall_mshr_miss_rate::.switch_cpus.data     0.094573                       # mshr miss rate for overall accesses
system.cpu.dcache.overall_mshr_miss_rate::total     0.094573                       # mshr miss rate for overall accesses
system.cpu.dcache.demand_avg_mshr_miss_latency::.switch_cpus.data 61551.233488                       # average overall mshr miss latency
system.cpu.dcache.demand_avg_mshr_miss_latency::total 61551.233488                       # average overall mshr miss latency
system.cpu.dcache.overall_avg_mshr_miss_latency::.switch_cpus.data 61551.233488                       # average overall mshr miss latency
system.cpu.dcache.overall_avg_mshr_miss_latency::total 61551.233488                       # average overall mshr miss latency
system.cpu.dcache.replacements                1298099                       # number of replacements
system.cpu.dcache.ReadReq_hits::.switch_cpus.data     10149330                       # number of ReadReq hits
system.cpu.dcache.ReadReq_hits::total        10149330                       # number of ReadReq hits
system.cpu.dcache.ReadReq_misses::.cpu.data            2                       # number of ReadReq misses
system.cpu.dcache.ReadReq_misses::.switch_cpus.data      1101615                       # number of ReadReq misses
system.cpu.dcache.ReadReq_misses::total       1101617                       # number of ReadReq misses
system.cpu.dcache.ReadReq_miss_latency::.switch_cpus.data  53189718500                       # number of ReadReq miss cycles
system.cpu.dcache.ReadReq_miss_latency::total  53189718500                       # number of ReadReq miss cycles
system.cpu.dcache.ReadReq_accesses::.cpu.data            2                       # number of ReadReq accesses(hits+misses)
system.cpu.dcache.ReadReq_accesses::.switch_cpus.data     11250945                       # number of ReadReq accesses(hits+misses)
system.cpu.dcache.ReadReq_accesses::total     11250947                       # number of ReadReq accesses(hits+misses)
system.cpu.dcache.ReadReq_miss_rate::.cpu.data            1                       # miss rate for ReadReq accesses
system.cpu.dcache.ReadReq_miss_rate::.switch_cpus.data     0.097913                       # miss rate for ReadReq accesses
system.cpu.dcache.ReadReq_miss_rate::total     0.097913                       # miss rate for ReadReq accesses
system.cpu.dcache.ReadReq_avg_miss_latency::.switch_cpus.data 48283.400734                       # average ReadReq miss latency
system.cpu.dcache.ReadReq_avg_miss_latency::total 48283.313075                       # average ReadReq miss latency
system.cpu.dcache.ReadReq_mshr_hits::.switch_cpus.data       287628                       # number of ReadReq MSHR hits
system.cpu.dcache.ReadReq_mshr_hits::total       287628                       # number of ReadReq MSHR hits
system.cpu.dcache.ReadReq_mshr_misses::.switch_cpus.data       813987                       # number of ReadReq MSHR misses
system.cpu.dcache.ReadReq_mshr_misses::total       813987                       # number of ReadReq MSHR misses
system.cpu.dcache.ReadReq_mshr_miss_latency::.switch_cpus.data  40448378000                       # number of ReadReq MSHR miss cycles
system.cpu.dcache.ReadReq_mshr_miss_latency::total  40448378000                       # number of ReadReq MSHR miss cycles
system.cpu.dcache.ReadReq_mshr_miss_rate::.switch_cpus.data     0.072348                       # mshr miss rate for ReadReq accesses
system.cpu.dcache.ReadReq_mshr_miss_rate::total     0.072348                       # mshr miss rate for ReadReq accesses
system.cpu.dcache.ReadReq_avg_mshr_miss_latency::.switch_cpus.data 49691.675666                       # average ReadReq mshr miss latency
system.cpu.dcache.ReadReq_avg_mshr_miss_latency::total 49691.675666                       # average ReadReq mshr miss latency
system.cpu.dcache.WriteReq_hits::.switch_cpus.data      2000583                       # number of WriteReq hits
system.cpu.dcache.WriteReq_hits::total        2000583                       # number of WriteReq hits
system.cpu.dcache.WriteReq_misses::.switch_cpus.data       485145                       # number of WriteReq misses
system.cpu.dcache.WriteReq_misses::total       485145                       # number of WriteReq misses
system.cpu.dcache.WriteReq_miss_latency::.switch_cpus.data  39999421000                       # number of WriteReq miss cycles
system.cpu.dcache.WriteReq_miss_latency::total  39999421000                       # number of WriteReq miss cycles
system.cpu.dcache.WriteReq_accesses::.switch_cpus.data      2485728                       # number of WriteReq accesses(hits+misses)
system.cpu.dcache.WriteReq_accesses::total      2485728                       # number of WriteReq accesses(hits+misses)
system.cpu.dcache.WriteReq_miss_rate::.switch_cpus.data     0.195172                       # miss rate for WriteReq accesses
system.cpu.dcache.WriteReq_miss_rate::total     0.195172                       # miss rate for WriteReq accesses
system.cpu.dcache.WriteReq_avg_miss_latency::.switch_cpus.data 82448.383473                       # average WriteReq miss latency
system.cpu.dcache.WriteReq_avg_miss_latency::total 82448.383473                       # average WriteReq miss latency
system.cpu.dcache.WriteReq_mshr_hits::.switch_cpus.data           11                       # number of WriteReq MSHR hits
system.cpu.dcache.WriteReq_mshr_hits::total           11                       # number of WriteReq MSHR hits
system.cpu.dcache.WriteReq_mshr_misses::.switch_cpus.data       485134                       # number of WriteReq MSHR misses
system.cpu.dcache.WriteReq_mshr_misses::total       485134                       # number of WriteReq MSHR misses
system.cpu.dcache.WriteReq_mshr_miss_latency::.switch_cpus.data  39514122000                       # number of WriteReq MSHR miss cycles
system.cpu.dcache.WriteReq_mshr_miss_latency::total  39514122000                       # number of WriteReq MSHR miss cycles
system.cpu.dcache.WriteReq_mshr_miss_rate::.switch_cpus.data     0.195168                       # mshr miss rate for WriteReq accesses
system.cpu.dcache.WriteReq_mshr_miss_rate::total     0.195168                       # mshr miss rate for WriteReq accesses
system.cpu.dcache.WriteReq_avg_mshr_miss_latency::.switch_cpus.data 81449.912808                       # average WriteReq mshr miss latency
system.cpu.dcache.WriteReq_avg_mshr_miss_latency::total 81449.912808                       # average WriteReq mshr miss latency
system.cpu.dcache.tags.pwrStateResidencyTicks::UNDEFINED 926110254942000                       # Cumulative time (in ticks) in various power states
system.cpu.dcache.tags.tagsinuse             0.078075                       # Cycle average of tags in use
system.cpu.dcache.tags.total_refs            13449036                       # Total number of references to valid blocks.
system.cpu.dcache.tags.sampled_refs           1299123                       # Sample count of references to valid blocks.
system.cpu.dcache.tags.avg_refs             10.352396                       # Average number of references to valid blocks.
system.cpu.dcache.tags.warmup_cycle      926039603283000                       # Cycle when the warmup percentage was hit.
system.cpu.dcache.tags.occ_blocks::.cpu.data     0.000000                       # Average occupied blocks per requestor
system.cpu.dcache.tags.occ_blocks::.switch_cpus.data     0.078075                       # Average occupied blocks per requestor
system.cpu.dcache.tags.occ_percent::.cpu.data     0.000000                       # Average percentage of cache occupancy
system.cpu.dcache.tags.occ_percent::.switch_cpus.data     0.000076                       # Average percentage of cache occupancy
system.cpu.dcache.tags.occ_percent::total     0.000076                       # Average percentage of cache occupancy
system.cpu.dcache.tags.occ_task_id_blocks::1024         1024                       # Occupied blocks per task id
system.cpu.dcache.tags.age_task_id_blocks_1024::0          128                       # Occupied blocks per task id
system.cpu.dcache.tags.age_task_id_blocks_1024::1          726                       # Occupied blocks per task id
system.cpu.dcache.tags.age_task_id_blocks_1024::2          166                       # Occupied blocks per task id
system.cpu.dcache.tags.age_task_id_blocks_1024::3            4                       # Occupied blocks per task id
system.cpu.dcache.tags.occ_task_id_percent::1024            1                       # Percentage of cache occupancy per task id
system.cpu.dcache.tags.tag_accesses          28772473                       # Number of tag accesses
system.cpu.dcache.tags.data_accesses         28772473                       # Number of data accesses

---------- End Simulation Statistics   ----------
