
---------- Begin Simulation Statistics ----------
final_tick                               92858165140000                       # Number of ticks from beginning of simulation (restored from checkpoints and never reset)
host_inst_rate                                  22156                       # Simulator instruction rate (inst/s)
host_mem_usage                                 827544                       # Number of bytes of host memory used
host_op_rate                                    35903                       # Simulator op (including micro ops) rate (op/s)
host_seconds                                   451.35                       # Real time elapsed on the host
host_tick_rate                              170754488                       # Simulator tick rate (ticks/s)
sim_freq                                 1000000000000                       # Frequency of simulated ticks
sim_insts                                    10000010                       # Number of instructions simulated
sim_ops                                      16204568                       # Number of ops (including micro ops) simulated
sim_seconds                                  0.077070                       # Number of seconds simulated
sim_ticks                                 77069713750                       # Number of ticks simulated
system.cpu.Branches                                 3                       # Number of branches fetched
system.cpu.committedInsts                          10                       # Number of instructions committed
system.cpu.committedOps                            18                       # Number of ops (including micro ops) committed
system.cpu.dtb.rdAccesses                           4                       # TLB accesses on read requests
system.cpu.dtb.rdMisses                             0                       # TLB misses on read requests
system.cpu.dtb.wrAccesses                           0                       # TLB accesses on write requests
system.cpu.dtb.wrMisses                             0                       # TLB misses on write requests
system.cpu.idle_fraction                            0                       # Percentage of idle cycles
system.cpu.itb.rdAccesses                           0                       # TLB accesses on read requests
system.cpu.itb.rdMisses                             0                       # TLB misses on read requests
system.cpu.itb.wrAccesses                          13                       # TLB accesses on write requests
system.cpu.itb.wrMisses                             0                       # TLB misses on write requests
system.cpu.not_idle_fraction                        1                       # Percentage of non-idle cycles
system.cpu.numCycles                               21                       # number of cpu cycles simulated
system.cpu.numWorkItemsCompleted                    0                       # number of work items this cpu completed
system.cpu.numWorkItemsStarted                      0                       # number of work items this cpu started
system.cpu.num_busy_cycles                         21                       # Number of busy cycles
system.cpu.num_cc_register_reads                   16                       # number of times the CC registers were read
system.cpu.num_cc_register_writes                   8                       # number of times the CC registers were written
system.cpu.num_conditional_control_insts            3                       # number of instructions that are conditional controls
system.cpu.num_fp_alu_accesses                      0                       # Number of float alu accesses
system.cpu.num_fp_insts                             0                       # number of float instructions
system.cpu.num_fp_register_reads                    0                       # number of times the floating registers were read
system.cpu.num_fp_register_writes                   0                       # number of times the floating registers were written
system.cpu.num_func_calls                           0                       # number of times a function call or return occured
system.cpu.num_idle_cycles                          0                       # Number of idle cycles
system.cpu.num_int_alu_accesses                    18                       # Number of integer alu accesses
system.cpu.num_int_insts                           18                       # number of integer instructions
system.cpu.num_int_register_reads                  33                       # number of times the integer registers were read
system.cpu.num_int_register_writes                 15                       # number of times the integer registers were written
system.cpu.num_load_insts                           4                       # Number of load instructions
system.cpu.num_mem_refs                             4                       # number of memory refs
system.cpu.num_store_insts                          0                       # Number of store instructions
system.cpu.num_vec_alu_accesses                     0                       # Number of vector alu accesses
system.cpu.num_vec_insts                            0                       # number of vector instructions
system.cpu.num_vec_register_reads                   0                       # number of times the vector registers were read
system.cpu.num_vec_register_writes                  0                       # number of times the vector registers were written
system.cpu.op_class::No_OpClass                     0      0.00%      0.00% # Class of executed instruction
system.cpu.op_class::IntAlu                        14     77.78%     77.78% # Class of executed instruction
system.cpu.op_class::IntMult                        0      0.00%     77.78% # Class of executed instruction
system.cpu.op_class::IntDiv                         0      0.00%     77.78% # Class of executed instruction
system.cpu.op_class::FloatAdd                       0      0.00%     77.78% # Class of executed instruction
system.cpu.op_class::FloatCmp                       0      0.00%     77.78% # Class of executed instruction
system.cpu.op_class::FloatCvt                       0      0.00%     77.78% # Class of executed instruction
system.cpu.op_class::FloatMult                      0      0.00%     77.78% # Class of executed instruction
system.cpu.op_class::FloatMultAcc                   0      0.00%     77.78% # Class of executed instruction
system.cpu.op_class::FloatDiv                       0      0.00%     77.78% # Class of executed instruction
system.cpu.op_class::FloatMisc                      0      0.00%     77.78% # Class of executed instruction
system.cpu.op_class::FloatSqrt                      0      0.00%     77.78% # Class of executed instruction
system.cpu.op_class::SimdAdd                        0      0.00%     77.78% # Class of executed instruction
system.cpu.op_class::SimdAddAcc                     0      0.00%     77.78% # Class of executed instruction
system.cpu.op_class::SimdAlu                        0      0.00%     77.78% # Class of executed instruction
system.cpu.op_class::SimdCmp                        0      0.00%     77.78% # Class of executed instruction
system.cpu.op_class::SimdCvt                        0      0.00%     77.78% # Class of executed instruction
system.cpu.op_class::SimdMisc                       0      0.00%     77.78% # Class of executed instruction
system.cpu.op_class::SimdMult                       0      0.00%     77.78% # Class of executed instruction
system.cpu.op_class::SimdMultAcc                    0      0.00%     77.78% # Class of executed instruction
system.cpu.op_class::SimdShift                      0      0.00%     77.78% # Class of executed instruction
system.cpu.op_class::SimdShiftAcc                   0      0.00%     77.78% # Class of executed instruction
system.cpu.op_class::SimdDiv                        0      0.00%     77.78% # Class of executed instruction
system.cpu.op_class::SimdSqrt                       0      0.00%     77.78% # Class of executed instruction
system.cpu.op_class::SimdFloatAdd                   0      0.00%     77.78% # Class of executed instruction
system.cpu.op_class::SimdFloatAlu                   0      0.00%     77.78% # Class of executed instruction
system.cpu.op_class::SimdFloatCmp                   0      0.00%     77.78% # Class of executed instruction
system.cpu.op_class::SimdFloatCvt                   0      0.00%     77.78% # Class of executed instruction
system.cpu.op_class::SimdFloatDiv                   0      0.00%     77.78% # Class of executed instruction
system.cpu.op_class::SimdFloatMisc                  0      0.00%     77.78% # Class of executed instruction
system.cpu.op_class::SimdFloatMult                  0      0.00%     77.78% # Class of executed instruction
system.cpu.op_class::SimdFloatMultAcc               0      0.00%     77.78% # Class of executed instruction
system.cpu.op_class::SimdFloatSqrt                  0      0.00%     77.78% # Class of executed instruction
system.cpu.op_class::SimdReduceAdd                  0      0.00%     77.78% # Class of executed instruction
system.cpu.op_class::SimdReduceAlu                  0      0.00%     77.78% # Class of executed instruction
system.cpu.op_class::SimdReduceCmp                  0      0.00%     77.78% # Class of executed instruction
system.cpu.op_class::SimdFloatReduceAdd             0      0.00%     77.78% # Class of executed instruction
system.cpu.op_class::SimdFloatReduceCmp             0      0.00%     77.78% # Class of executed instruction
system.cpu.op_class::SimdAes                        0      0.00%     77.78% # Class of executed instruction
system.cpu.op_class::SimdAesMix                     0      0.00%     77.78% # Class of executed instruction
system.cpu.op_class::SimdSha1Hash                   0      0.00%     77.78% # Class of executed instruction
system.cpu.op_class::SimdSha1Hash2                  0      0.00%     77.78% # Class of executed instruction
system.cpu.op_class::SimdSha256Hash                 0      0.00%     77.78% # Class of executed instruction
system.cpu.op_class::SimdSha256Hash2                0      0.00%     77.78% # Class of executed instruction
system.cpu.op_class::SimdShaSigma2                  0      0.00%     77.78% # Class of executed instruction
system.cpu.op_class::SimdShaSigma3                  0      0.00%     77.78% # Class of executed instruction
system.cpu.op_class::SimdPredAlu                    0      0.00%     77.78% # Class of executed instruction
system.cpu.op_class::MemRead                        4     22.22%    100.00% # Class of executed instruction
system.cpu.op_class::MemWrite                       0      0.00%    100.00% # Class of executed instruction
system.cpu.op_class::FloatMemRead                   0      0.00%    100.00% # Class of executed instruction
system.cpu.op_class::FloatMemWrite                  0      0.00%    100.00% # Class of executed instruction
system.cpu.op_class::IprAccess                      0      0.00%    100.00% # Class of executed instruction
system.cpu.op_class::InstPrefetch                   0      0.00%    100.00% # Class of executed instruction
system.cpu.op_class::total                         18                       # Class of executed instruction
system.cpu.workload.numSyscalls                     0                       # Number of system calls
system.membus.snoop_filter.hit_multi_requests            0                       # Number of requests hitting in the snoop filter with multiple (>1) holders of the requested data.
system.membus.snoop_filter.hit_multi_snoops            0                       # Number of snoops hitting in the snoop filter with multiple (>1) holders of the requested data.
system.membus.snoop_filter.hit_single_requests      2053164                       # Number of requests hitting in the snoop filter with a single holder of the requested data.
system.membus.snoop_filter.hit_single_snoops            0                       # Number of snoops hitting in the snoop filter with a single holder of the requested data.
system.membus.snoop_filter.tot_requests       4110445                       # Total number of requests made to the snoop filter.
system.membus.snoop_filter.tot_snoops               0                       # Total number of snoops made to the snoop filter.
system.switch_cpus.branchPred.BTBCorrect            0                       # Number of correct BTB predictions (this stat may not work properly.
system.switch_cpus.branchPred.BTBHitPct      0.000000                       # BTB Hit Percentage
system.switch_cpus.branchPred.BTBHits               0                       # Number of BTB hits
system.switch_cpus.branchPred.BTBLookups      2063533                       # Number of BTB lookups
system.switch_cpus.branchPred.RASInCorrect            2                       # Number of incorrect RAS predictions.
system.switch_cpus.branchPred.condIncorrect       172152                       # Number of conditional branches incorrect
system.switch_cpus.branchPred.condPredicted      4389812                       # Number of conditional branches predicted
system.switch_cpus.branchPred.indirectHits      1626822                       # Number of indirect target hits.
system.switch_cpus.branchPred.indirectLookups      2063533                       # Number of indirect predictor lookups.
system.switch_cpus.branchPred.indirectMisses       436711                       # Number of indirect misses.
system.switch_cpus.branchPred.lookups         4398394                       # Number of BP lookups
system.switch_cpus.branchPred.usedRAS             225                       # Number of times the RAS was used to get a target.
system.switch_cpus.branchPredindirectMispredicted        26771                       # Number of mispredicted indirect branches.
system.switch_cpus.cc_regfile_reads          12858248                       # number of cc regfile reads
system.switch_cpus.cc_regfile_writes          9397571                       # number of cc regfile writes
system.switch_cpus.commit.amos                      0                       # Number of atomic instructions committed
system.switch_cpus.commit.branchMispredicts       172165                       # The number of times a branch was mispredicted
system.switch_cpus.commit.branches            1904056                       # Number of branches committed
system.switch_cpus.commit.bw_lim_events        477056                       # number cycles where commit BW limit reached
system.switch_cpus.commit.commitSquashedInsts     15741186                       # The number of squashed insts skipped by commit
system.switch_cpus.commit.committedInsts     10000000                       # Number of instructions committed
system.switch_cpus.commit.committedOps       16204550                       # Number of ops (including micro ops) committed
system.switch_cpus.commit.committed_per_cycle::samples    152011792                       # Number of insts commited each cycle
system.switch_cpus.commit.committed_per_cycle::mean     0.106601                       # Number of insts commited each cycle
system.switch_cpus.commit.committed_per_cycle::stdev     0.649991                       # Number of insts commited each cycle
system.switch_cpus.commit.committed_per_cycle::underflows            0      0.00%      0.00% # Number of insts commited each cycle
system.switch_cpus.commit.committed_per_cycle::0    145339617     95.61%     95.61% # Number of insts commited each cycle
system.switch_cpus.commit.committed_per_cycle::1      3131863      2.06%     97.67% # Number of insts commited each cycle
system.switch_cpus.commit.committed_per_cycle::2      1309991      0.86%     98.53% # Number of insts commited each cycle
system.switch_cpus.commit.committed_per_cycle::3       908051      0.60%     99.13% # Number of insts commited each cycle
system.switch_cpus.commit.committed_per_cycle::4       555723      0.37%     99.50% # Number of insts commited each cycle
system.switch_cpus.commit.committed_per_cycle::5        90986      0.06%     99.56% # Number of insts commited each cycle
system.switch_cpus.commit.committed_per_cycle::6       155253      0.10%     99.66% # Number of insts commited each cycle
system.switch_cpus.commit.committed_per_cycle::7        43252      0.03%     99.69% # Number of insts commited each cycle
system.switch_cpus.commit.committed_per_cycle::8       477056      0.31%    100.00% # Number of insts commited each cycle
system.switch_cpus.commit.committed_per_cycle::overflows            0      0.00%    100.00% # Number of insts commited each cycle
system.switch_cpus.commit.committed_per_cycle::min_value            0                       # Number of insts commited each cycle
system.switch_cpus.commit.committed_per_cycle::max_value            8                       # Number of insts commited each cycle
system.switch_cpus.commit.committed_per_cycle::total    152011792                       # Number of insts commited each cycle
system.switch_cpus.commit.fp_insts                  0                       # Number of committed floating point instructions.
system.switch_cpus.commit.function_calls            0                       # Number of function calls committed.
system.switch_cpus.commit.int_insts          16204186                       # Number of committed integer instructions.
system.switch_cpus.commit.loads               3567032                       # Number of loads committed
system.switch_cpus.commit.membars                   0                       # Number of memory barriers committed
system.switch_cpus.commit.op_class_0::No_OpClass            0      0.00%      0.00% # Class of committed instruction
system.switch_cpus.commit.op_class_0::IntAlu     11575705     71.43%     71.43% # Class of committed instruction
system.switch_cpus.commit.op_class_0::IntMult            0      0.00%     71.43% # Class of committed instruction
system.switch_cpus.commit.op_class_0::IntDiv            0      0.00%     71.43% # Class of committed instruction
system.switch_cpus.commit.op_class_0::FloatAdd            0      0.00%     71.43% # Class of committed instruction
system.switch_cpus.commit.op_class_0::FloatCmp            0      0.00%     71.43% # Class of committed instruction
system.switch_cpus.commit.op_class_0::FloatCvt            0      0.00%     71.43% # Class of committed instruction
system.switch_cpus.commit.op_class_0::FloatMult            0      0.00%     71.43% # Class of committed instruction
system.switch_cpus.commit.op_class_0::FloatMultAcc            0      0.00%     71.43% # Class of committed instruction
system.switch_cpus.commit.op_class_0::FloatDiv            0      0.00%     71.43% # Class of committed instruction
system.switch_cpus.commit.op_class_0::FloatMisc            0      0.00%     71.43% # Class of committed instruction
system.switch_cpus.commit.op_class_0::FloatSqrt            0      0.00%     71.43% # Class of committed instruction
system.switch_cpus.commit.op_class_0::SimdAdd            0      0.00%     71.43% # Class of committed instruction
system.switch_cpus.commit.op_class_0::SimdAddAcc            0      0.00%     71.43% # Class of committed instruction
system.switch_cpus.commit.op_class_0::SimdAlu            0      0.00%     71.43% # Class of committed instruction
system.switch_cpus.commit.op_class_0::SimdCmp            0      0.00%     71.43% # Class of committed instruction
system.switch_cpus.commit.op_class_0::SimdCvt            0      0.00%     71.43% # Class of committed instruction
system.switch_cpus.commit.op_class_0::SimdMisc            0      0.00%     71.43% # Class of committed instruction
system.switch_cpus.commit.op_class_0::SimdMult            0      0.00%     71.43% # Class of committed instruction
system.switch_cpus.commit.op_class_0::SimdMultAcc            0      0.00%     71.43% # Class of committed instruction
system.switch_cpus.commit.op_class_0::SimdShift            0      0.00%     71.43% # Class of committed instruction
system.switch_cpus.commit.op_class_0::SimdShiftAcc            0      0.00%     71.43% # Class of committed instruction
system.switch_cpus.commit.op_class_0::SimdDiv            0      0.00%     71.43% # Class of committed instruction
system.switch_cpus.commit.op_class_0::SimdSqrt            0      0.00%     71.43% # Class of committed instruction
system.switch_cpus.commit.op_class_0::SimdFloatAdd            0      0.00%     71.43% # Class of committed instruction
system.switch_cpus.commit.op_class_0::SimdFloatAlu            0      0.00%     71.43% # Class of committed instruction
system.switch_cpus.commit.op_class_0::SimdFloatCmp            0      0.00%     71.43% # Class of committed instruction
system.switch_cpus.commit.op_class_0::SimdFloatCvt            0      0.00%     71.43% # Class of committed instruction
system.switch_cpus.commit.op_class_0::SimdFloatDiv            0      0.00%     71.43% # Class of committed instruction
system.switch_cpus.commit.op_class_0::SimdFloatMisc            0      0.00%     71.43% # Class of committed instruction
system.switch_cpus.commit.op_class_0::SimdFloatMult            0      0.00%     71.43% # Class of committed instruction
system.switch_cpus.commit.op_class_0::SimdFloatMultAcc            0      0.00%     71.43% # Class of committed instruction
system.switch_cpus.commit.op_class_0::SimdFloatSqrt            0      0.00%     71.43% # Class of committed instruction
system.switch_cpus.commit.op_class_0::SimdReduceAdd            0      0.00%     71.43% # Class of committed instruction
system.switch_cpus.commit.op_class_0::SimdReduceAlu            0      0.00%     71.43% # Class of committed instruction
system.switch_cpus.commit.op_class_0::SimdReduceCmp            0      0.00%     71.43% # Class of committed instruction
system.switch_cpus.commit.op_class_0::SimdFloatReduceAdd            0      0.00%     71.43% # Class of committed instruction
system.switch_cpus.commit.op_class_0::SimdFloatReduceCmp            0      0.00%     71.43% # Class of committed instruction
system.switch_cpus.commit.op_class_0::SimdAes            0      0.00%     71.43% # Class of committed instruction
system.switch_cpus.commit.op_class_0::SimdAesMix            0      0.00%     71.43% # Class of committed instruction
system.switch_cpus.commit.op_class_0::SimdSha1Hash            0      0.00%     71.43% # Class of committed instruction
system.switch_cpus.commit.op_class_0::SimdSha1Hash2            0      0.00%     71.43% # Class of committed instruction
system.switch_cpus.commit.op_class_0::SimdSha256Hash            0      0.00%     71.43% # Class of committed instruction
system.switch_cpus.commit.op_class_0::SimdSha256Hash2            0      0.00%     71.43% # Class of committed instruction
system.switch_cpus.commit.op_class_0::SimdShaSigma2            0      0.00%     71.43% # Class of committed instruction
system.switch_cpus.commit.op_class_0::SimdShaSigma3            0      0.00%     71.43% # Class of committed instruction
system.switch_cpus.commit.op_class_0::SimdPredAlu            0      0.00%     71.43% # Class of committed instruction
system.switch_cpus.commit.op_class_0::MemRead      3567032     22.01%     93.45% # Class of committed instruction
system.switch_cpus.commit.op_class_0::MemWrite      1061813      6.55%    100.00% # Class of committed instruction
system.switch_cpus.commit.op_class_0::FloatMemRead            0      0.00%    100.00% # Class of committed instruction
system.switch_cpus.commit.op_class_0::FloatMemWrite            0      0.00%    100.00% # Class of committed instruction
system.switch_cpus.commit.op_class_0::IprAccess            0      0.00%    100.00% # Class of committed instruction
system.switch_cpus.commit.op_class_0::InstPrefetch            0      0.00%    100.00% # Class of committed instruction
system.switch_cpus.commit.op_class_0::total     16204550                       # Class of committed instruction
system.switch_cpus.commit.refs                4628845                       # Number of memory references committed
system.switch_cpus.commit.swp_count                 0                       # Number of s/w prefetches committed
system.switch_cpus.commit.vec_insts                 0                       # Number of committed Vector instructions.
system.switch_cpus.committedInsts            10000000                       # Number of Instructions Simulated
system.switch_cpus.committedOps              16204550                       # Number of Ops (including micro ops) Simulated
system.switch_cpus.cpi                      15.413941                       # CPI: Cycles Per Instruction
system.switch_cpus.cpi_total                15.413941                       # CPI: Total CPI of All Threads
system.switch_cpus.decode.BlockedCycles     147798613                       # Number of cycles decode is blocked
system.switch_cpus.decode.DecodedInsts       33495194                       # Number of instructions handled by decode
system.switch_cpus.decode.IdleCycles          1673394                       # Number of cycles decode is idle
system.switch_cpus.decode.RunCycles           2705026                       # Number of cycles decode is running
system.switch_cpus.decode.SquashCycles         172295                       # Number of cycles decode is squashing
system.switch_cpus.decode.UnblockCycles       1789009                       # Number of cycles decode is unblocking
system.switch_cpus.dtb.rdAccesses             4687641                       # TLB accesses on read requests
system.switch_cpus.dtb.rdMisses                 44475                       # TLB misses on read requests
system.switch_cpus.dtb.wrAccesses             1605265                       # TLB accesses on write requests
system.switch_cpus.dtb.wrMisses                  1616                       # TLB misses on write requests
system.switch_cpus.fetch.Branches             4398394                       # Number of branches that fetch encountered
system.switch_cpus.fetch.CacheLines           3002932                       # Number of cache lines fetched
system.switch_cpus.fetch.Cycles             150847895                       # Number of cycles fetch has run and was not squashing or blocked
system.switch_cpus.fetch.IcacheSquashes         17721                       # Number of outstanding Icache misses that were squashed
system.switch_cpus.fetch.Insts               24214828                       # Number of instructions fetch has processed
system.switch_cpus.fetch.MiscStallCycles           11                       # Number of cycles fetch has spent waiting on interrupts, or bad addresses, or out of MSHRs
system.switch_cpus.fetch.PendingTrapStallCycles         1623                       # Number of stall cycles due to pending traps
system.switch_cpus.fetch.SquashCycles          344590                       # Number of cycles fetch has spent squashing
system.switch_cpus.fetch.branchRate          0.028535                       # Number of branch fetches per cycle
system.switch_cpus.fetch.icacheStallCycles      3116522                       # Number of cycles fetch is stalled on an Icache miss
system.switch_cpus.fetch.predictedBranches      1627047                       # Number of branches that fetch has predicted taken
system.switch_cpus.fetch.rate                0.157097                       # Number of inst fetches per cycle
system.switch_cpus.fetch.rateDist::samples    154138346                       # Number of instructions fetched each cycle (Total)
system.switch_cpus.fetch.rateDist::mean      0.251381                       # Number of instructions fetched each cycle (Total)
system.switch_cpus.fetch.rateDist::stdev     1.292092                       # Number of instructions fetched each cycle (Total)
system.switch_cpus.fetch.rateDist::underflows            0      0.00%      0.00% # Number of instructions fetched each cycle (Total)
system.switch_cpus.fetch.rateDist::0        147774087     95.87%     95.87% # Number of instructions fetched each cycle (Total)
system.switch_cpus.fetch.rateDist::1           145755      0.09%     95.97% # Number of instructions fetched each cycle (Total)
system.switch_cpus.fetch.rateDist::2           616495      0.40%     96.37% # Number of instructions fetched each cycle (Total)
system.switch_cpus.fetch.rateDist::3           340866      0.22%     96.59% # Number of instructions fetched each cycle (Total)
system.switch_cpus.fetch.rateDist::4           502221      0.33%     96.91% # Number of instructions fetched each cycle (Total)
system.switch_cpus.fetch.rateDist::5           415135      0.27%     97.18% # Number of instructions fetched each cycle (Total)
system.switch_cpus.fetch.rateDist::6          1155259      0.75%     97.93% # Number of instructions fetched each cycle (Total)
system.switch_cpus.fetch.rateDist::7           178265      0.12%     98.05% # Number of instructions fetched each cycle (Total)
system.switch_cpus.fetch.rateDist::8          3010263      1.95%    100.00% # Number of instructions fetched each cycle (Total)
system.switch_cpus.fetch.rateDist::overflows            0      0.00%    100.00% # Number of instructions fetched each cycle (Total)
system.switch_cpus.fetch.rateDist::min_value            0                       # Number of instructions fetched each cycle (Total)
system.switch_cpus.fetch.rateDist::max_value            8                       # Number of instructions fetched each cycle (Total)
system.switch_cpus.fetch.rateDist::total    154138346                       # Number of instructions fetched each cycle (Total)
system.switch_cpus.fp_regfile_writes               56                       # number of floating regfile writes
system.switch_cpus.idleCycles                    1060                       # Total number of cycles that the CPU has spent unscheduled due to idling
system.switch_cpus.iew.branchMispredicts       185298                       # Number of branch mispredicts detected at execute
system.switch_cpus.iew.exec_branches          2336595                       # Number of branches executed
system.switch_cpus.iew.exec_nop                     0                       # number of nop insts executed
system.switch_cpus.iew.exec_rate             0.159027                       # Inst execution rate
system.switch_cpus.iew.exec_refs              6599386                       # number of memory reference insts executed
system.switch_cpus.iew.exec_stores            1605265                       # Number of stores executed
system.switch_cpus.iew.exec_swp                     0                       # number of swp insts executed
system.switch_cpus.iew.iewBlockCycles       111316017                       # Number of cycles IEW is blocking
system.switch_cpus.iew.iewDispLoadInsts       6880518                       # Number of dispatched load instructions
system.switch_cpus.iew.iewDispNonSpecInsts            0                       # Number of dispatched non-speculative instructions
system.switch_cpus.iew.iewDispSquashedInsts         4961                       # Number of squashed instructions skipped by dispatch
system.switch_cpus.iew.iewDispStoreInsts      2392481                       # Number of dispatched store instructions
system.switch_cpus.iew.iewDispatchedInsts     31939614                       # Number of instructions dispatched to IQ
system.switch_cpus.iew.iewExecLoadInsts       4994121                       # Number of load instructions executed
system.switch_cpus.iew.iewExecSquashedInsts       175902                       # Number of squashed instructions skipped in execute
system.switch_cpus.iew.iewExecutedInsts      24512325                       # Number of executed instructions
system.switch_cpus.iew.iewIQFullEvents         474724                       # Number of times the IQ has become full, causing a stall
system.switch_cpus.iew.iewIdleCycles                0                       # Number of cycles IEW is idle
system.switch_cpus.iew.iewLSQFullEvents        730357                       # Number of times the LSQ has become full, causing a stall
system.switch_cpus.iew.iewSquashCycles         172295                       # Number of cycles IEW is squashing
system.switch_cpus.iew.iewUnblockCycles       1849664                       # Number of cycles IEW is unblocking
system.switch_cpus.iew.lsq.thread0.blockedLoads            0                       # Number of blocked loads due to partial load-store forwarding
system.switch_cpus.iew.lsq.thread0.cacheBlocked       150203                       # Number of times an access to memory failed due to the cache being blocked
system.switch_cpus.iew.lsq.thread0.forwLoads        32500                       # Number of loads that had data forwarded from stores
system.switch_cpus.iew.lsq.thread0.ignoredResponses           22                       # Number of memory responses ignored because the instruction is squashed
system.switch_cpus.iew.lsq.thread0.invAddrLoads            0                       # Number of loads ignored due to an invalid address
system.switch_cpus.iew.lsq.thread0.invAddrSwpfs            0                       # Number of software prefetches ignored due to an invalid address
system.switch_cpus.iew.lsq.thread0.memOrderViolation          186                       # Number of memory ordering violations
system.switch_cpus.iew.lsq.thread0.rescheduledLoads            0                       # Number of loads that were rescheduled
system.switch_cpus.iew.lsq.thread0.squashedLoads      3313462                       # Number of loads squashed
system.switch_cpus.iew.lsq.thread0.squashedStores      1330668                       # Number of stores squashed
system.switch_cpus.iew.memOrderViolationEvents          186                       # Number of memory order violations
system.switch_cpus.iew.predictedNotTakenIncorrect        92019                       # Number of branches that were predicted not taken incorrectly
system.switch_cpus.iew.predictedTakenIncorrect        93279                       # Number of branches that were predicted taken incorrectly
system.switch_cpus.iew.wb_consumers          27884261                       # num instructions consuming a value
system.switch_cpus.iew.wb_count              23901564                       # cumulative count of insts written-back
system.switch_cpus.iew.wb_fanout             0.629890                       # average fanout of values written-back
system.switch_cpus.iew.wb_producers          17564020                       # num instructions producing a value
system.switch_cpus.iew.wb_rate               0.155065                       # insts written-back per cycle
system.switch_cpus.iew.wb_sent               23910265                       # cumulative count of insts sent to commit
system.switch_cpus.int_regfile_reads         32998125                       # number of integer regfile reads
system.switch_cpus.int_regfile_writes        19952863                       # number of integer regfile writes
system.switch_cpus.ipc                       0.064876                       # IPC: Instructions Per Cycle
system.switch_cpus.ipc_total                 0.064876                       # IPC: Total IPC of All Threads
system.switch_cpus.iq.FU_type_0::No_OpClass        15503      0.06%      0.06% # Type of FU issued
system.switch_cpus.iq.FU_type_0::IntAlu      17994332     72.89%     72.95% # Type of FU issued
system.switch_cpus.iq.FU_type_0::IntMult         2322      0.01%     72.96% # Type of FU issued
system.switch_cpus.iq.FU_type_0::IntDiv             0      0.00%     72.96% # Type of FU issued
system.switch_cpus.iq.FU_type_0::FloatAdd            0      0.00%     72.96% # Type of FU issued
system.switch_cpus.iq.FU_type_0::FloatCmp            0      0.00%     72.96% # Type of FU issued
system.switch_cpus.iq.FU_type_0::FloatCvt            0      0.00%     72.96% # Type of FU issued
system.switch_cpus.iq.FU_type_0::FloatMult            0      0.00%     72.96% # Type of FU issued
system.switch_cpus.iq.FU_type_0::FloatMultAcc            0      0.00%     72.96% # Type of FU issued
system.switch_cpus.iq.FU_type_0::FloatDiv            0      0.00%     72.96% # Type of FU issued
system.switch_cpus.iq.FU_type_0::FloatMisc            0      0.00%     72.96% # Type of FU issued
system.switch_cpus.iq.FU_type_0::FloatSqrt            0      0.00%     72.96% # Type of FU issued
system.switch_cpus.iq.FU_type_0::SimdAdd            0      0.00%     72.96% # Type of FU issued
system.switch_cpus.iq.FU_type_0::SimdAddAcc            0      0.00%     72.96% # Type of FU issued
system.switch_cpus.iq.FU_type_0::SimdAlu            0      0.00%     72.96% # Type of FU issued
system.switch_cpus.iq.FU_type_0::SimdCmp            0      0.00%     72.96% # Type of FU issued
system.switch_cpus.iq.FU_type_0::SimdCvt            0      0.00%     72.96% # Type of FU issued
system.switch_cpus.iq.FU_type_0::SimdMisc            0      0.00%     72.96% # Type of FU issued
system.switch_cpus.iq.FU_type_0::SimdMult            0      0.00%     72.96% # Type of FU issued
system.switch_cpus.iq.FU_type_0::SimdMultAcc            0      0.00%     72.96% # Type of FU issued
system.switch_cpus.iq.FU_type_0::SimdShift            0      0.00%     72.96% # Type of FU issued
system.switch_cpus.iq.FU_type_0::SimdShiftAcc            0      0.00%     72.96% # Type of FU issued
system.switch_cpus.iq.FU_type_0::SimdDiv            0      0.00%     72.96% # Type of FU issued
system.switch_cpus.iq.FU_type_0::SimdSqrt            0      0.00%     72.96% # Type of FU issued
system.switch_cpus.iq.FU_type_0::SimdFloatAdd            0      0.00%     72.96% # Type of FU issued
system.switch_cpus.iq.FU_type_0::SimdFloatAlu            0      0.00%     72.96% # Type of FU issued
system.switch_cpus.iq.FU_type_0::SimdFloatCmp            0      0.00%     72.96% # Type of FU issued
system.switch_cpus.iq.FU_type_0::SimdFloatCvt            0      0.00%     72.96% # Type of FU issued
system.switch_cpus.iq.FU_type_0::SimdFloatDiv            0      0.00%     72.96% # Type of FU issued
system.switch_cpus.iq.FU_type_0::SimdFloatMisc            0      0.00%     72.96% # Type of FU issued
system.switch_cpus.iq.FU_type_0::SimdFloatMult            0      0.00%     72.96% # Type of FU issued
system.switch_cpus.iq.FU_type_0::SimdFloatMultAcc            0      0.00%     72.96% # Type of FU issued
system.switch_cpus.iq.FU_type_0::SimdFloatSqrt            0      0.00%     72.96% # Type of FU issued
system.switch_cpus.iq.FU_type_0::SimdReduceAdd            0      0.00%     72.96% # Type of FU issued
system.switch_cpus.iq.FU_type_0::SimdReduceAlu            0      0.00%     72.96% # Type of FU issued
system.switch_cpus.iq.FU_type_0::SimdReduceCmp            0      0.00%     72.96% # Type of FU issued
system.switch_cpus.iq.FU_type_0::SimdFloatReduceAdd            0      0.00%     72.96% # Type of FU issued
system.switch_cpus.iq.FU_type_0::SimdFloatReduceCmp            0      0.00%     72.96% # Type of FU issued
system.switch_cpus.iq.FU_type_0::SimdAes            0      0.00%     72.96% # Type of FU issued
system.switch_cpus.iq.FU_type_0::SimdAesMix            0      0.00%     72.96% # Type of FU issued
system.switch_cpus.iq.FU_type_0::SimdSha1Hash            0      0.00%     72.96% # Type of FU issued
system.switch_cpus.iq.FU_type_0::SimdSha1Hash2            0      0.00%     72.96% # Type of FU issued
system.switch_cpus.iq.FU_type_0::SimdSha256Hash            0      0.00%     72.96% # Type of FU issued
system.switch_cpus.iq.FU_type_0::SimdSha256Hash2            0      0.00%     72.96% # Type of FU issued
system.switch_cpus.iq.FU_type_0::SimdShaSigma2            0      0.00%     72.96% # Type of FU issued
system.switch_cpus.iq.FU_type_0::SimdShaSigma3            0      0.00%     72.96% # Type of FU issued
system.switch_cpus.iq.FU_type_0::SimdPredAlu            0      0.00%     72.96% # Type of FU issued
system.switch_cpus.iq.FU_type_0::MemRead      5010920     20.30%     93.26% # Type of FU issued
system.switch_cpus.iq.FU_type_0::MemWrite      1665151      6.74%    100.00% # Type of FU issued
system.switch_cpus.iq.FU_type_0::FloatMemRead            0      0.00%    100.00% # Type of FU issued
system.switch_cpus.iq.FU_type_0::FloatMemWrite            0      0.00%    100.00% # Type of FU issued
system.switch_cpus.iq.FU_type_0::IprAccess            0      0.00%    100.00% # Type of FU issued
system.switch_cpus.iq.FU_type_0::InstPrefetch            0      0.00%    100.00% # Type of FU issued
system.switch_cpus.iq.FU_type_0::total       24688228                       # Type of FU issued
system.switch_cpus.iq.fp_alu_accesses               0                       # Number of floating point alu accesses
system.switch_cpus.iq.fp_inst_queue_reads            0                       # Number of floating instruction queue reads
system.switch_cpus.iq.fp_inst_queue_wakeup_accesses            0                       # Number of floating instruction queue wakeup accesses
system.switch_cpus.iq.fp_inst_queue_writes            0                       # Number of floating instruction queue writes
system.switch_cpus.iq.fu_busy_cnt              264959                       # FU busy when requested
system.switch_cpus.iq.fu_busy_rate           0.010732                       # FU busy rate (busy events/executed inst)
system.switch_cpus.iq.fu_full::No_OpClass            0      0.00%      0.00% # attempts to use FU when none available
system.switch_cpus.iq.fu_full::IntAlu           64831     24.47%     24.47% # attempts to use FU when none available
system.switch_cpus.iq.fu_full::IntMult              0      0.00%     24.47% # attempts to use FU when none available
system.switch_cpus.iq.fu_full::IntDiv               0      0.00%     24.47% # attempts to use FU when none available
system.switch_cpus.iq.fu_full::FloatAdd             0      0.00%     24.47% # attempts to use FU when none available
system.switch_cpus.iq.fu_full::FloatCmp             0      0.00%     24.47% # attempts to use FU when none available
system.switch_cpus.iq.fu_full::FloatCvt             0      0.00%     24.47% # attempts to use FU when none available
system.switch_cpus.iq.fu_full::FloatMult            0      0.00%     24.47% # attempts to use FU when none available
system.switch_cpus.iq.fu_full::FloatMultAcc            0      0.00%     24.47% # attempts to use FU when none available
system.switch_cpus.iq.fu_full::FloatDiv             0      0.00%     24.47% # attempts to use FU when none available
system.switch_cpus.iq.fu_full::FloatMisc            0      0.00%     24.47% # attempts to use FU when none available
system.switch_cpus.iq.fu_full::FloatSqrt            0      0.00%     24.47% # attempts to use FU when none available
system.switch_cpus.iq.fu_full::SimdAdd              0      0.00%     24.47% # attempts to use FU when none available
system.switch_cpus.iq.fu_full::SimdAddAcc            0      0.00%     24.47% # attempts to use FU when none available
system.switch_cpus.iq.fu_full::SimdAlu              0      0.00%     24.47% # attempts to use FU when none available
system.switch_cpus.iq.fu_full::SimdCmp              0      0.00%     24.47% # attempts to use FU when none available
system.switch_cpus.iq.fu_full::SimdCvt              0      0.00%     24.47% # attempts to use FU when none available
system.switch_cpus.iq.fu_full::SimdMisc             0      0.00%     24.47% # attempts to use FU when none available
system.switch_cpus.iq.fu_full::SimdMult             0      0.00%     24.47% # attempts to use FU when none available
system.switch_cpus.iq.fu_full::SimdMultAcc            0      0.00%     24.47% # attempts to use FU when none available
system.switch_cpus.iq.fu_full::SimdShift            0      0.00%     24.47% # attempts to use FU when none available
system.switch_cpus.iq.fu_full::SimdShiftAcc            0      0.00%     24.47% # attempts to use FU when none available
system.switch_cpus.iq.fu_full::SimdDiv              0      0.00%     24.47% # attempts to use FU when none available
system.switch_cpus.iq.fu_full::SimdSqrt             0      0.00%     24.47% # attempts to use FU when none available
system.switch_cpus.iq.fu_full::SimdFloatAdd            0      0.00%     24.47% # attempts to use FU when none available
system.switch_cpus.iq.fu_full::SimdFloatAlu            0      0.00%     24.47% # attempts to use FU when none available
system.switch_cpus.iq.fu_full::SimdFloatCmp            0      0.00%     24.47% # attempts to use FU when none available
system.switch_cpus.iq.fu_full::SimdFloatCvt            0      0.00%     24.47% # attempts to use FU when none available
system.switch_cpus.iq.fu_full::SimdFloatDiv            0      0.00%     24.47% # attempts to use FU when none available
system.switch_cpus.iq.fu_full::SimdFloatMisc            0      0.00%     24.47% # attempts to use FU when none available
system.switch_cpus.iq.fu_full::SimdFloatMult            0      0.00%     24.47% # attempts to use FU when none available
system.switch_cpus.iq.fu_full::SimdFloatMultAcc            0      0.00%     24.47% # attempts to use FU when none available
system.switch_cpus.iq.fu_full::SimdFloatSqrt            0      0.00%     24.47% # attempts to use FU when none available
system.switch_cpus.iq.fu_full::SimdReduceAdd            0      0.00%     24.47% # attempts to use FU when none available
system.switch_cpus.iq.fu_full::SimdReduceAlu            0      0.00%     24.47% # attempts to use FU when none available
system.switch_cpus.iq.fu_full::SimdReduceCmp            0      0.00%     24.47% # attempts to use FU when none available
system.switch_cpus.iq.fu_full::SimdFloatReduceAdd            0      0.00%     24.47% # attempts to use FU when none available
system.switch_cpus.iq.fu_full::SimdFloatReduceCmp            0      0.00%     24.47% # attempts to use FU when none available
system.switch_cpus.iq.fu_full::SimdAes              0      0.00%     24.47% # attempts to use FU when none available
system.switch_cpus.iq.fu_full::SimdAesMix            0      0.00%     24.47% # attempts to use FU when none available
system.switch_cpus.iq.fu_full::SimdSha1Hash            0      0.00%     24.47% # attempts to use FU when none available
system.switch_cpus.iq.fu_full::SimdSha1Hash2            0      0.00%     24.47% # attempts to use FU when none available
system.switch_cpus.iq.fu_full::SimdSha256Hash            0      0.00%     24.47% # attempts to use FU when none available
system.switch_cpus.iq.fu_full::SimdSha256Hash2            0      0.00%     24.47% # attempts to use FU when none available
system.switch_cpus.iq.fu_full::SimdShaSigma2            0      0.00%     24.47% # attempts to use FU when none available
system.switch_cpus.iq.fu_full::SimdShaSigma3            0      0.00%     24.47% # attempts to use FU when none available
system.switch_cpus.iq.fu_full::SimdPredAlu            0      0.00%     24.47% # attempts to use FU when none available
system.switch_cpus.iq.fu_full::MemRead          64481     24.34%     48.80% # attempts to use FU when none available
system.switch_cpus.iq.fu_full::MemWrite        135647     51.20%    100.00% # attempts to use FU when none available
system.switch_cpus.iq.fu_full::FloatMemRead            0      0.00%    100.00% # attempts to use FU when none available
system.switch_cpus.iq.fu_full::FloatMemWrite            0      0.00%    100.00% # attempts to use FU when none available
system.switch_cpus.iq.fu_full::IprAccess            0      0.00%    100.00% # attempts to use FU when none available
system.switch_cpus.iq.fu_full::InstPrefetch            0      0.00%    100.00% # attempts to use FU when none available
system.switch_cpus.iq.int_alu_accesses       24937684                       # Number of integer alu accesses
system.switch_cpus.iq.int_inst_queue_reads    203794325                       # Number of integer instruction queue reads
system.switch_cpus.iq.int_inst_queue_wakeup_accesses     23901564                       # Number of integer instruction queue wakeup accesses
system.switch_cpus.iq.int_inst_queue_writes     47674764                       # Number of integer instruction queue writes
system.switch_cpus.iq.iqInstsAdded           31939614                       # Number of instructions added to the IQ (excludes non-spec)
system.switch_cpus.iq.iqInstsIssued          24688228                       # Number of instructions issued
system.switch_cpus.iq.iqSquashedInstsExamined     15734979                       # Number of squashed instructions iterated over during squash; mainly for profiling
system.switch_cpus.iq.iqSquashedInstsIssued        14565                       # Number of squashed instructions issued
system.switch_cpus.iq.iqSquashedOperandsExamined     28308338                       # Number of squashed operands that are examined and possibly removed from graph
system.switch_cpus.iq.issued_per_cycle::samples    154138346                       # Number of insts issued each cycle
system.switch_cpus.iq.issued_per_cycle::mean     0.160169                       # Number of insts issued each cycle
system.switch_cpus.iq.issued_per_cycle::stdev     0.691536                       # Number of insts issued each cycle
system.switch_cpus.iq.issued_per_cycle::underflows            0      0.00%      0.00% # Number of insts issued each cycle
system.switch_cpus.iq.issued_per_cycle::0    142249073     92.29%     92.29% # Number of insts issued each cycle
system.switch_cpus.iq.issued_per_cycle::1      5952617      3.86%     96.15% # Number of insts issued each cycle
system.switch_cpus.iq.issued_per_cycle::2      2724420      1.77%     97.92% # Number of insts issued each cycle
system.switch_cpus.iq.issued_per_cycle::3      1432857      0.93%     98.85% # Number of insts issued each cycle
system.switch_cpus.iq.issued_per_cycle::4       797822      0.52%     99.36% # Number of insts issued each cycle
system.switch_cpus.iq.issued_per_cycle::5       425119      0.28%     99.64% # Number of insts issued each cycle
system.switch_cpus.iq.issued_per_cycle::6       309111      0.20%     99.84% # Number of insts issued each cycle
system.switch_cpus.iq.issued_per_cycle::7       161965      0.11%     99.94% # Number of insts issued each cycle
system.switch_cpus.iq.issued_per_cycle::8        85362      0.06%    100.00% # Number of insts issued each cycle
system.switch_cpus.iq.issued_per_cycle::overflows            0      0.00%    100.00% # Number of insts issued each cycle
system.switch_cpus.iq.issued_per_cycle::min_value            0                       # Number of insts issued each cycle
system.switch_cpus.iq.issued_per_cycle::max_value            8                       # Number of insts issued each cycle
system.switch_cpus.iq.issued_per_cycle::total    154138346                       # Number of insts issued each cycle
system.switch_cpus.iq.rate                   0.160168                       # Inst issue rate
system.switch_cpus.iq.vec_alu_accesses              0                       # Number of vector alu accesses
system.switch_cpus.iq.vec_inst_queue_reads            0                       # Number of vector instruction queue reads
system.switch_cpus.iq.vec_inst_queue_wakeup_accesses            0                       # Number of vector instruction queue wakeup accesses
system.switch_cpus.iq.vec_inst_queue_writes            0                       # Number of vector instruction queue writes
system.switch_cpus.itb.rdAccesses                   0                       # TLB accesses on read requests
system.switch_cpus.itb.rdMisses                     0                       # TLB misses on read requests
system.switch_cpus.itb.wrAccesses             3003168                       # TLB accesses on write requests
system.switch_cpus.itb.wrMisses                   239                       # TLB misses on write requests
system.switch_cpus.memDep0.conflictingLoads       448679                       # Number of conflicting loads.
system.switch_cpus.memDep0.conflictingStores       660850                       # Number of conflicting stores.
system.switch_cpus.memDep0.insertedLoads      6880518                       # Number of loads inserted to the mem dependence unit.
system.switch_cpus.memDep0.insertedStores      2392481                       # Number of stores inserted to the mem dependence unit.
system.switch_cpus.misc_regfile_reads        12546661                       # number of misc regfile reads
system.switch_cpus.misc_regfile_writes              1                       # number of misc regfile writes
system.switch_cpus.numCycles                154139406                       # number of cpu cycles simulated
system.switch_cpus.numWorkItemsCompleted            0                       # number of work items this cpu completed
system.switch_cpus.numWorkItemsStarted              0                       # number of work items this cpu started
system.switch_cpus.rename.BlockCycles       139703027                       # Number of cycles rename is blocking
system.switch_cpus.rename.CommittedMaps      20622243                       # Number of HB maps that are committed
system.switch_cpus.rename.IQFullEvents        6331432                       # Number of times rename has blocked due to IQ full
system.switch_cpus.rename.IdleCycles          2126538                       # Number of cycles rename is idle
system.switch_cpus.rename.LQFullEvents         361910                       # Number of times rename has blocked due to LQ full
system.switch_cpus.rename.ROBFullEvents         91846                       # Number of times rename has blocked due to ROB full
system.switch_cpus.rename.RenameLookups      86970801                       # Number of register rename lookups that rename has made
system.switch_cpus.rename.RenamedInsts       32693064                       # Number of instructions processed by rename
system.switch_cpus.rename.RenamedOperands     41251292                       # Number of destination operands rename has renamed
system.switch_cpus.rename.RunCycles           3601810                       # Number of cycles rename is running
system.switch_cpus.rename.SQFullEvents        1886079                       # Number of times rename has blocked due to SQ full
system.switch_cpus.rename.SquashCycles         172295                       # Number of cycles rename is squashing
system.switch_cpus.rename.UnblockCycles       8534667                       # Number of cycles rename is unblocking
system.switch_cpus.rename.UndoneMaps         20628935                       # Number of HB maps that are undone due to squashing
system.switch_cpus.rename.int_rename_lookups     49608806                       # Number of integer rename lookups
system.switch_cpus.rename.serializeStallCycles            0                       # count of cycles rename stalled for serializing inst
system.switch_cpus.rename.serializingInsts            0                       # count of serializing insts renamed
system.switch_cpus.rename.skidInsts          11423203                       # count of insts added to the skid buffer
system.switch_cpus.rename.tempSerializingInsts            0                       # count of temporary serializing insts renamed
system.switch_cpus.rob.rob_reads            183480472                       # The number of ROB reads
system.switch_cpus.rob.rob_writes            66021360                       # The number of ROB writes
system.switch_cpus.timesIdled                      22                       # Number of times that the entire CPU went into an idle state and unscheduled itself
system.tol2bus.snoop_filter.hit_multi_requests            0                       # Number of requests hitting in the snoop filter with multiple (>1) holders of the requested data.
system.tol2bus.snoop_filter.hit_multi_snoops            0                       # Number of snoops hitting in the snoop filter with multiple (>1) holders of the requested data.
system.tol2bus.snoop_filter.hit_single_requests      2091213                       # Number of requests hitting in the snoop filter with a single holder of the requested data.
system.tol2bus.snoop_filter.hit_single_snoops         1308                       # Number of snoops hitting in the snoop filter with a single holder of the requested data.
system.tol2bus.snoop_filter.tot_requests      4183470                       # Total number of requests made to the snoop filter.
system.tol2bus.snoop_filter.tot_snoops           1308                       # Total number of snoops made to the snoop filter.
system.membus.pwrStateResidencyTicks::UNDEFINED 92858165140000                       # Cumulative time (in ticks) in various power states
system.membus.trans_dist::ReadResp            1978181                       # Transaction distribution
system.membus.trans_dist::WritebackDirty       137379                       # Transaction distribution
system.membus.trans_dist::CleanEvict          1915785                       # Transaction distribution
system.membus.trans_dist::ReadExReq             79100                       # Transaction distribution
system.membus.trans_dist::ReadExResp            79100                       # Transaction distribution
system.membus.trans_dist::ReadSharedReq       1978181                       # Transaction distribution
system.membus.pkt_count_system.l2.mem_side::system.mem_ctrls.port      6167726                       # Packet count per connected master and slave (bytes)
system.membus.pkt_count_system.l2.mem_side::total      6167726                       # Packet count per connected master and slave (bytes)
system.membus.pkt_count::total                6167726                       # Packet count per connected master and slave (bytes)
system.membus.pkt_size_system.l2.mem_side::system.mem_ctrls.port    140458240                       # Cumulative packet size per connected master and slave (bytes)
system.membus.pkt_size_system.l2.mem_side::total    140458240                       # Cumulative packet size per connected master and slave (bytes)
system.membus.pkt_size::total               140458240                       # Cumulative packet size per connected master and slave (bytes)
system.membus.snoops                                0                       # Total snoops (count)
system.membus.snoopTraffic                          0                       # Total snoop traffic (bytes)
system.membus.snoop_fanout::samples           2057281                       # Request fanout histogram
system.membus.snoop_fanout::mean                    0                       # Request fanout histogram
system.membus.snoop_fanout::stdev                   0                       # Request fanout histogram
system.membus.snoop_fanout::underflows              0      0.00%      0.00% # Request fanout histogram
system.membus.snoop_fanout::0                 2057281    100.00%    100.00% # Request fanout histogram
system.membus.snoop_fanout::1                       0      0.00%    100.00% # Request fanout histogram
system.membus.snoop_fanout::overflows               0      0.00%    100.00% # Request fanout histogram
system.membus.snoop_fanout::min_value               0                       # Request fanout histogram
system.membus.snoop_fanout::max_value               0                       # Request fanout histogram
system.membus.snoop_fanout::total             2057281                       # Request fanout histogram
system.membus.reqLayer2.occupancy          5173208000                       # Layer occupancy (ticks)
system.membus.reqLayer2.utilization               6.7                       # Layer utilization (%)
system.membus.respLayer1.occupancy        10698596000                       # Layer occupancy (ticks)
system.membus.respLayer1.utilization             13.9                       # Layer utilization (%)
system.switch_cpus.pwrStateResidencyTicks::OFF  77069713750                       # Cumulative time (in ticks) in various power states
system.switch_cpus.dtb.walker.pwrStateResidencyTicks::UNDEFINED 92858165140000                       # Cumulative time (in ticks) in various power states
system.switch_cpus.itb.walker.pwrStateResidencyTicks::UNDEFINED 92858165140000                       # Cumulative time (in ticks) in various power states
system.tol2bus.pwrStateResidencyTicks::UNDEFINED 92858165140000                       # Cumulative time (in ticks) in various power states
system.tol2bus.trans_dist::ReadResp           2012513                       # Transaction distribution
system.tol2bus.trans_dist::WritebackDirty       277927                       # Transaction distribution
system.tol2bus.trans_dist::CleanEvict         3866827                       # Transaction distribution
system.tol2bus.trans_dist::ReadExReq            79743                       # Transaction distribution
system.tol2bus.trans_dist::ReadExResp           79743                       # Transaction distribution
system.tol2bus.trans_dist::ReadCleanReq            19                       # Transaction distribution
system.tol2bus.trans_dist::ReadSharedReq      2012495                       # Transaction distribution
system.tol2bus.pkt_count_system.cpu.icache.mem_side::system.l2.cpu_side           38                       # Packet count per connected master and slave (bytes)
system.tol2bus.pkt_count_system.cpu.dcache.mem_side::system.l2.cpu_side      6275688                       # Packet count per connected master and slave (bytes)
system.tol2bus.pkt_count::total               6275726                       # Packet count per connected master and slave (bytes)
system.tol2bus.pkt_size_system.cpu.icache.mem_side::system.l2.cpu_side         1216                       # Cumulative packet size per connected master and slave (bytes)
system.tol2bus.pkt_size_system.cpu.dcache.mem_side::system.l2.cpu_side    142898240                       # Cumulative packet size per connected master and slave (bytes)
system.tol2bus.pkt_size::total              142899456                       # Cumulative packet size per connected master and slave (bytes)
system.tol2bus.snoops                         2053541                       # Total snoops (count)
system.tol2bus.snoopTraffic                   8792256                       # Total snoop traffic (bytes)
system.tol2bus.snoop_fanout::samples          4145798                       # Request fanout histogram
system.tol2bus.snoop_fanout::mean            0.000316                       # Request fanout histogram
system.tol2bus.snoop_fanout::stdev           0.017760                       # Request fanout histogram
system.tol2bus.snoop_fanout::underflows             0      0.00%      0.00% # Request fanout histogram
system.tol2bus.snoop_fanout::0                4144490     99.97%     99.97% # Request fanout histogram
system.tol2bus.snoop_fanout::1                   1308      0.03%    100.00% # Request fanout histogram
system.tol2bus.snoop_fanout::2                      0      0.00%    100.00% # Request fanout histogram
system.tol2bus.snoop_fanout::3                      0      0.00%    100.00% # Request fanout histogram
system.tol2bus.snoop_fanout::4                      0      0.00%    100.00% # Request fanout histogram
system.tol2bus.snoop_fanout::overflows              0      0.00%    100.00% # Request fanout histogram
system.tol2bus.snoop_fanout::min_value              0                       # Request fanout histogram
system.tol2bus.snoop_fanout::max_value              1                       # Request fanout histogram
system.tol2bus.snoop_fanout::total            4145798                       # Request fanout histogram
system.tol2bus.reqLayer0.occupancy         2232281000                       # Layer occupancy (ticks)
system.tol2bus.reqLayer0.utilization              2.9                       # Layer utilization (%)
system.tol2bus.respLayer1.occupancy        3138351000                       # Layer occupancy (ticks)
system.tol2bus.respLayer1.utilization             4.1                       # Layer utilization (%)
system.tol2bus.respLayer0.occupancy             27000                       # Layer occupancy (ticks)
system.tol2bus.respLayer0.utilization             0.0                       # Layer utilization (%)
system.voltage_domain.voltage                       1                       # Voltage in Volts
system.clk_domain.clock                          1000                       # Clock period in ticks
system.l2.pwrStateResidencyTicks::UNDEFINED 92858165140000                       # Cumulative time (in ticks) in various power states
system.l2.demand_hits::.switch_cpus.data        34976                       # number of demand (read+write) hits
system.l2.demand_hits::total                    34976                       # number of demand (read+write) hits
system.l2.overall_hits::.switch_cpus.data        34976                       # number of overall hits
system.l2.overall_hits::total                   34976                       # number of overall hits
system.l2.demand_misses::.cpu.inst                  1                       # number of demand (read+write) misses
system.l2.demand_misses::.cpu.data                  3                       # number of demand (read+write) misses
system.l2.demand_misses::.switch_cpus.inst           18                       # number of demand (read+write) misses
system.l2.demand_misses::.switch_cpus.data      2057259                       # number of demand (read+write) misses
system.l2.demand_misses::total                2057281                       # number of demand (read+write) misses
system.l2.overall_misses::.cpu.inst                 1                       # number of overall misses
system.l2.overall_misses::.cpu.data                 3                       # number of overall misses
system.l2.overall_misses::.switch_cpus.inst           18                       # number of overall misses
system.l2.overall_misses::.switch_cpus.data      2057259                       # number of overall misses
system.l2.overall_misses::total               2057281                       # number of overall misses
system.l2.demand_miss_latency::.switch_cpus.inst      1598500                       # number of demand (read+write) miss cycles
system.l2.demand_miss_latency::.switch_cpus.data 167290575500                       # number of demand (read+write) miss cycles
system.l2.demand_miss_latency::total     167292174000                       # number of demand (read+write) miss cycles
system.l2.overall_miss_latency::.switch_cpus.inst      1598500                       # number of overall miss cycles
system.l2.overall_miss_latency::.switch_cpus.data 167290575500                       # number of overall miss cycles
system.l2.overall_miss_latency::total    167292174000                       # number of overall miss cycles
system.l2.demand_accesses::.cpu.inst                1                       # number of demand (read+write) accesses
system.l2.demand_accesses::.cpu.data                3                       # number of demand (read+write) accesses
system.l2.demand_accesses::.switch_cpus.inst           18                       # number of demand (read+write) accesses
system.l2.demand_accesses::.switch_cpus.data      2092235                       # number of demand (read+write) accesses
system.l2.demand_accesses::total              2092257                       # number of demand (read+write) accesses
system.l2.overall_accesses::.cpu.inst               1                       # number of overall (read+write) accesses
system.l2.overall_accesses::.cpu.data               3                       # number of overall (read+write) accesses
system.l2.overall_accesses::.switch_cpus.inst           18                       # number of overall (read+write) accesses
system.l2.overall_accesses::.switch_cpus.data      2092235                       # number of overall (read+write) accesses
system.l2.overall_accesses::total             2092257                       # number of overall (read+write) accesses
system.l2.demand_miss_rate::.cpu.inst               1                       # miss rate for demand accesses
system.l2.demand_miss_rate::.cpu.data               1                       # miss rate for demand accesses
system.l2.demand_miss_rate::.switch_cpus.inst            1                       # miss rate for demand accesses
system.l2.demand_miss_rate::.switch_cpus.data     0.983283                       # miss rate for demand accesses
system.l2.demand_miss_rate::total            0.983283                       # miss rate for demand accesses
system.l2.overall_miss_rate::.cpu.inst              1                       # miss rate for overall accesses
system.l2.overall_miss_rate::.cpu.data              1                       # miss rate for overall accesses
system.l2.overall_miss_rate::.switch_cpus.inst            1                       # miss rate for overall accesses
system.l2.overall_miss_rate::.switch_cpus.data     0.983283                       # miss rate for overall accesses
system.l2.overall_miss_rate::total           0.983283                       # miss rate for overall accesses
system.l2.demand_avg_miss_latency::.switch_cpus.inst 88805.555556                       # average overall miss latency
system.l2.demand_avg_miss_latency::.switch_cpus.data 81317.216500                       # average overall miss latency
system.l2.demand_avg_miss_latency::total 81317.123913                       # average overall miss latency
system.l2.overall_avg_miss_latency::.switch_cpus.inst 88805.555556                       # average overall miss latency
system.l2.overall_avg_miss_latency::.switch_cpus.data 81317.216500                       # average overall miss latency
system.l2.overall_avg_miss_latency::total 81317.123913                       # average overall miss latency
system.l2.blocked_cycles::no_mshrs                  0                       # number of cycles access was blocked
system.l2.blocked_cycles::no_targets                0                       # number of cycles access was blocked
system.l2.blocked::no_mshrs                         0                       # number of cycles access was blocked
system.l2.blocked::no_targets                       0                       # number of cycles access was blocked
system.l2.avg_blocked_cycles::no_mshrs            nan                       # average number of cycles each access was blocked
system.l2.avg_blocked_cycles::no_targets          nan                       # average number of cycles each access was blocked
system.l2.writebacks::.writebacks              137379                       # number of writebacks
system.l2.writebacks::total                    137379                       # number of writebacks
system.l2.demand_mshr_misses::.switch_cpus.inst           18                       # number of demand (read+write) MSHR misses
system.l2.demand_mshr_misses::.switch_cpus.data      2057259                       # number of demand (read+write) MSHR misses
system.l2.demand_mshr_misses::total           2057277                       # number of demand (read+write) MSHR misses
system.l2.overall_mshr_misses::.switch_cpus.inst           18                       # number of overall MSHR misses
system.l2.overall_mshr_misses::.switch_cpus.data      2057259                       # number of overall MSHR misses
system.l2.overall_mshr_misses::total          2057277                       # number of overall MSHR misses
system.l2.demand_mshr_miss_latency::.switch_cpus.inst      1418500                       # number of demand (read+write) MSHR miss cycles
system.l2.demand_mshr_miss_latency::.switch_cpus.data 146717985500                       # number of demand (read+write) MSHR miss cycles
system.l2.demand_mshr_miss_latency::total 146719404000                       # number of demand (read+write) MSHR miss cycles
system.l2.overall_mshr_miss_latency::.switch_cpus.inst      1418500                       # number of overall MSHR miss cycles
system.l2.overall_mshr_miss_latency::.switch_cpus.data 146717985500                       # number of overall MSHR miss cycles
system.l2.overall_mshr_miss_latency::total 146719404000                       # number of overall MSHR miss cycles
system.l2.demand_mshr_miss_rate::.switch_cpus.inst            1                       # mshr miss rate for demand accesses
system.l2.demand_mshr_miss_rate::.switch_cpus.data     0.983283                       # mshr miss rate for demand accesses
system.l2.demand_mshr_miss_rate::total       0.983281                       # mshr miss rate for demand accesses
system.l2.overall_mshr_miss_rate::.switch_cpus.inst            1                       # mshr miss rate for overall accesses
system.l2.overall_mshr_miss_rate::.switch_cpus.data     0.983283                       # mshr miss rate for overall accesses
system.l2.overall_mshr_miss_rate::total      0.983281                       # mshr miss rate for overall accesses
system.l2.demand_avg_mshr_miss_latency::.switch_cpus.inst 78805.555556                       # average overall mshr miss latency
system.l2.demand_avg_mshr_miss_latency::.switch_cpus.data 71317.216500                       # average overall mshr miss latency
system.l2.demand_avg_mshr_miss_latency::total 71317.282019                       # average overall mshr miss latency
system.l2.overall_avg_mshr_miss_latency::.switch_cpus.inst 78805.555556                       # average overall mshr miss latency
system.l2.overall_avg_mshr_miss_latency::.switch_cpus.data 71317.216500                       # average overall mshr miss latency
system.l2.overall_avg_mshr_miss_latency::total 71317.282019                       # average overall mshr miss latency
system.l2.replacements                        2053541                       # number of replacements
system.l2.WritebackDirty_hits::.writebacks       140548                       # number of WritebackDirty hits
system.l2.WritebackDirty_hits::total           140548                       # number of WritebackDirty hits
system.l2.WritebackDirty_accesses::.writebacks       140548                       # number of WritebackDirty accesses(hits+misses)
system.l2.WritebackDirty_accesses::total       140548                       # number of WritebackDirty accesses(hits+misses)
system.l2.CleanEvict_mshr_misses::.writebacks          932                       # number of CleanEvict MSHR misses
system.l2.CleanEvict_mshr_misses::total           932                       # number of CleanEvict MSHR misses
system.l2.CleanEvict_mshr_miss_rate::.writebacks          inf                       # mshr miss rate for CleanEvict accesses
system.l2.CleanEvict_mshr_miss_rate::total          inf                       # mshr miss rate for CleanEvict accesses
system.l2.ReadExReq_hits::.switch_cpus.data          643                       # number of ReadExReq hits
system.l2.ReadExReq_hits::total                   643                       # number of ReadExReq hits
system.l2.ReadExReq_misses::.switch_cpus.data        79100                       # number of ReadExReq misses
system.l2.ReadExReq_misses::total               79100                       # number of ReadExReq misses
system.l2.ReadExReq_miss_latency::.switch_cpus.data   6768444500                       # number of ReadExReq miss cycles
system.l2.ReadExReq_miss_latency::total    6768444500                       # number of ReadExReq miss cycles
system.l2.ReadExReq_accesses::.switch_cpus.data        79743                       # number of ReadExReq accesses(hits+misses)
system.l2.ReadExReq_accesses::total             79743                       # number of ReadExReq accesses(hits+misses)
system.l2.ReadExReq_miss_rate::.switch_cpus.data     0.991937                       # miss rate for ReadExReq accesses
system.l2.ReadExReq_miss_rate::total         0.991937                       # miss rate for ReadExReq accesses
system.l2.ReadExReq_avg_miss_latency::.switch_cpus.data 85568.198483                       # average ReadExReq miss latency
system.l2.ReadExReq_avg_miss_latency::total 85568.198483                       # average ReadExReq miss latency
system.l2.ReadExReq_mshr_misses::.switch_cpus.data        79100                       # number of ReadExReq MSHR misses
system.l2.ReadExReq_mshr_misses::total          79100                       # number of ReadExReq MSHR misses
system.l2.ReadExReq_mshr_miss_latency::.switch_cpus.data   5977444500                       # number of ReadExReq MSHR miss cycles
system.l2.ReadExReq_mshr_miss_latency::total   5977444500                       # number of ReadExReq MSHR miss cycles
system.l2.ReadExReq_mshr_miss_rate::.switch_cpus.data     0.991937                       # mshr miss rate for ReadExReq accesses
system.l2.ReadExReq_mshr_miss_rate::total     0.991937                       # mshr miss rate for ReadExReq accesses
system.l2.ReadExReq_avg_mshr_miss_latency::.switch_cpus.data 75568.198483                       # average ReadExReq mshr miss latency
system.l2.ReadExReq_avg_mshr_miss_latency::total 75568.198483                       # average ReadExReq mshr miss latency
system.l2.ReadCleanReq_misses::.cpu.inst            1                       # number of ReadCleanReq misses
system.l2.ReadCleanReq_misses::.switch_cpus.inst           18                       # number of ReadCleanReq misses
system.l2.ReadCleanReq_misses::total               19                       # number of ReadCleanReq misses
system.l2.ReadCleanReq_miss_latency::.switch_cpus.inst      1598500                       # number of ReadCleanReq miss cycles
system.l2.ReadCleanReq_miss_latency::total      1598500                       # number of ReadCleanReq miss cycles
system.l2.ReadCleanReq_accesses::.cpu.inst            1                       # number of ReadCleanReq accesses(hits+misses)
system.l2.ReadCleanReq_accesses::.switch_cpus.inst           18                       # number of ReadCleanReq accesses(hits+misses)
system.l2.ReadCleanReq_accesses::total             19                       # number of ReadCleanReq accesses(hits+misses)
system.l2.ReadCleanReq_miss_rate::.cpu.inst            1                       # miss rate for ReadCleanReq accesses
system.l2.ReadCleanReq_miss_rate::.switch_cpus.inst            1                       # miss rate for ReadCleanReq accesses
system.l2.ReadCleanReq_miss_rate::total             1                       # miss rate for ReadCleanReq accesses
system.l2.ReadCleanReq_avg_miss_latency::.switch_cpus.inst 88805.555556                       # average ReadCleanReq miss latency
system.l2.ReadCleanReq_avg_miss_latency::total 84131.578947                       # average ReadCleanReq miss latency
system.l2.ReadCleanReq_mshr_misses::.switch_cpus.inst           18                       # number of ReadCleanReq MSHR misses
system.l2.ReadCleanReq_mshr_misses::total           18                       # number of ReadCleanReq MSHR misses
system.l2.ReadCleanReq_mshr_miss_latency::.switch_cpus.inst      1418500                       # number of ReadCleanReq MSHR miss cycles
system.l2.ReadCleanReq_mshr_miss_latency::total      1418500                       # number of ReadCleanReq MSHR miss cycles
system.l2.ReadCleanReq_mshr_miss_rate::.switch_cpus.inst            1                       # mshr miss rate for ReadCleanReq accesses
system.l2.ReadCleanReq_mshr_miss_rate::total     0.947368                       # mshr miss rate for ReadCleanReq accesses
system.l2.ReadCleanReq_avg_mshr_miss_latency::.switch_cpus.inst 78805.555556                       # average ReadCleanReq mshr miss latency
system.l2.ReadCleanReq_avg_mshr_miss_latency::total 78805.555556                       # average ReadCleanReq mshr miss latency
system.l2.ReadSharedReq_hits::.switch_cpus.data        34333                       # number of ReadSharedReq hits
system.l2.ReadSharedReq_hits::total             34333                       # number of ReadSharedReq hits
system.l2.ReadSharedReq_misses::.cpu.data            3                       # number of ReadSharedReq misses
[...]
system.cpu.icache.tags.data_accesses         22307811                       # Number of data accesses
system.cpu.dtb.walker.pwrStateResidencyTicks::UNDEFINED 93064299906500                       # Cumulative time (in ticks) in various power states
system.cpu.interrupts.clk_domain.clock           8000                       # Clock period in ticks
system.cpu.itb_walker_cache.pwrStateResidencyTicks::UNDEFINED 93064299906500                       # Cumulative time (in ticks) in various power states
system.cpu.itb_walker_cache.blocked_cycles::no_mshrs            0                       # number of cycles access was blocked
system.cpu.itb_walker_cache.blocked_cycles::no_targets            0                       # number of cycles access was blocked
system.cpu.itb_walker_cache.blocked::no_mshrs            0                       # number of cycles access was blocked
system.cpu.itb_walker_cache.blocked::no_targets            0                       # number of cycles access was blocked
system.cpu.itb_walker_cache.avg_blocked_cycles::no_mshrs          nan                       # average number of cycles each access was blocked
system.cpu.itb_walker_cache.avg_blocked_cycles::no_targets          nan                       # average number of cycles each access was blocked
system.cpu.itb_walker_cache.replacements            0                       # number of replacements
system.cpu.itb_walker_cache.tags.pwrStateResidencyTicks::UNDEFINED 93064299906500                       # Cumulative time (in ticks) in various power states
system.cpu.itb_walker_cache.tags.tagsinuse            0                       # Cycle average of tags in use
system.cpu.itb_walker_cache.tags.total_refs            0                       # Total number of references to valid blocks.
system.cpu.itb_walker_cache.tags.sampled_refs            0                       # Sample count of references to valid blocks.
system.cpu.itb_walker_cache.tags.avg_refs          nan                       # Average number of references to valid blocks.
system.cpu.itb_walker_cache.tags.warmup_cycle            0                       # Cycle when the warmup percentage was hit.
system.cpu.itb_walker_cache.tags.tag_accesses            0                       # Number of tag accesses
system.cpu.itb_walker_cache.tags.data_accesses            0                       # Number of data accesses
system.cpu.itb.walker.pwrStateResidencyTicks::UNDEFINED 93064299906500                       # Cumulative time (in ticks) in various power states
system.cpu.dtb_walker_cache.pwrStateResidencyTicks::UNDEFINED 93064299906500                       # Cumulative time (in ticks) in various power states
system.cpu.dtb_walker_cache.blocked_cycles::no_mshrs            0                       # number of cycles access was blocked
system.cpu.dtb_walker_cache.blocked_cycles::no_targets            0                       # number of cycles access was blocked
system.cpu.dtb_walker_cache.blocked::no_mshrs            0                       # number of cycles access was blocked
system.cpu.dtb_walker_cache.blocked::no_targets            0                       # number of cycles access was blocked
system.cpu.dtb_walker_cache.avg_blocked_cycles::no_mshrs          nan                       # average number of cycles each access was blocked
system.cpu.dtb_walker_cache.avg_blocked_cycles::no_targets          nan                       # average number of cycles each access was blocked
system.cpu.dtb_walker_cache.replacements            0                       # number of replacements
system.cpu.dtb_walker_cache.tags.pwrStateResidencyTicks::UNDEFINED 93064299906500                       # Cumulative time (in ticks) in various power states
system.cpu.dtb_walker_cache.tags.tagsinuse            0                       # Cycle average of tags in use
system.cpu.dtb_walker_cache.tags.total_refs            0                       # Total number of references to valid blocks.
system.cpu.dtb_walker_cache.tags.sampled_refs            0                       # Sample count of references to valid blocks.
system.cpu.dtb_walker_cache.tags.avg_refs          nan                       # Average number of references to valid blocks.
system.cpu.dtb_walker_cache.tags.warmup_cycle            0                       # Cycle when the warmup percentage was hit.
system.cpu.dtb_walker_cache.tags.tag_accesses            0                       # Number of tag accesses
system.cpu.dtb_walker_cache.tags.data_accesses            0                       # Number of data accesses
system.cpu.dcache.pwrStateResidencyTicks::UNDEFINED 93064299906500                       # Cumulative time (in ticks) in various power states
system.cpu.dcache.demand_hits::.cpu.data            1                       # number of demand (read+write) hits
system.cpu.dcache.demand_hits::.switch_cpus.data     13332592                       # number of demand (read+write) hits
system.cpu.dcache.demand_hits::total         13332593                       # number of demand (read+write) hits
system.cpu.dcache.overall_hits::.cpu.data            1                       # number of overall hits
system.cpu.dcache.overall_hits::.switch_cpus.data     13332592                       # number of overall hits
system.cpu.dcache.overall_hits::total        13332593                       # number of overall hits
system.cpu.dcache.demand_misses::.cpu.data            3                       # number of demand (read+write) misses
system.cpu.dcache.demand_misses::.switch_cpus.data      8837863                       # number of demand (read+write) misses
system.cpu.dcache.demand_misses::total        8837866                       # number of demand (read+write) misses
system.cpu.dcache.overall_misses::.cpu.data            3                       # number of overall misses
system.cpu.dcache.overall_misses::.switch_cpus.data      8837863                       # number of overall misses
system.cpu.dcache.overall_misses::total       8837866                       # number of overall misses
system.cpu.dcache.demand_miss_latency::.switch_cpus.data 720672197596                       # number of demand (read+write) miss cycles
system.cpu.dcache.demand_miss_latency::total 720672197596                       # number of demand (read+write) miss cycles
system.cpu.dcache.overall_miss_latency::.switch_cpus.data 720672197596                       # number of overall miss cycles
system.cpu.dcache.overall_miss_latency::total 720672197596                       # number of overall miss cycles
system.cpu.dcache.demand_accesses::.cpu.data            4                       # number of demand (read+write) accesses
system.cpu.dcache.demand_accesses::.switch_cpus.data     22170455                       # number of demand (read+write) accesses
system.cpu.dcache.demand_accesses::total     22170459                       # number of demand (read+write) accesses
system.cpu.dcache.overall_accesses::.cpu.data            4                       # number of overall (read+write) accesses
system.cpu.dcache.overall_accesses::.switch_cpus.data     22170455                       # number of overall (read+write) accesses
system.cpu.dcache.overall_accesses::total     22170459                       # number of overall (read+write) accesses
system.cpu.dcache.demand_miss_rate::.cpu.data     0.750000                       # miss rate for demand accesses
system.cpu.dcache.demand_miss_rate::.switch_cpus.data     0.398632                       # miss rate for demand accesses
system.cpu.dcache.demand_miss_rate::total     0.398633                       # miss rate for demand accesses
system.cpu.dcache.overall_miss_rate::.cpu.data     0.750000                       # miss rate for overall accesses
system.cpu.dcache.overall_miss_rate::.switch_cpus.data     0.398632                       # miss rate for overall accesses
system.cpu.dcache.overall_miss_rate::total     0.398633                       # miss rate for overall accesses
system.cpu.dcache.demand_avg_miss_latency::.switch_cpus.data 81543.716801                       # average overall miss latency
system.cpu.dcache.demand_avg_miss_latency::total 81543.689121                       # average overall miss latency
system.cpu.dcache.overall_avg_miss_latency::.switch_cpus.data 81543.716801                       # average overall miss latency
system.cpu.dcache.overall_avg_miss_latency::total 81543.689121                       # average overall miss latency
system.cpu.dcache.blocked_cycles::no_mshrs     36887925                       # number of cycles access was blocked
system.cpu.dcache.blocked_cycles::no_targets            0                       # number of cycles access was blocked
system.cpu.dcache.blocked::no_mshrs           1381360                       # number of cycles access was blocked
system.cpu.dcache.blocked::no_targets               0                       # number of cycles access was blocked
system.cpu.dcache.avg_blocked_cycles::no_mshrs    26.704063                       # average number of cycles each access was blocked
system.cpu.dcache.avg_blocked_cycles::no_targets          nan                       # average number of cycles each access was blocked
system.cpu.dcache.writebacks::.writebacks       551228                       # number of writebacks
system.cpu.dcache.writebacks::total            551228                       # number of writebacks
system.cpu.dcache.demand_mshr_hits::.switch_cpus.data      1039032                       # number of demand (read+write) MSHR hits
system.cpu.dcache.demand_mshr_hits::total      1039032                       # number of demand (read+write) MSHR hits
system.cpu.dcache.overall_mshr_hits::.switch_cpus.data      1039032                       # number of overall MSHR hits
system.cpu.dcache.overall_mshr_hits::total      1039032                       # number of overall MSHR hits
system.cpu.dcache.demand_mshr_misses::.switch_cpus.data      7798831                       # number of demand (read+write) MSHR misses
system.cpu.dcache.demand_mshr_misses::total      7798831                       # number of demand (read+write) MSHR misses
system.cpu.dcache.overall_mshr_misses::.switch_cpus.data      7798831                       # number of overall MSHR misses
system.cpu.dcache.overall_mshr_misses::total      7798831                       # number of overall MSHR misses
system.cpu.dcache.demand_mshr_miss_latency::.switch_cpus.data 646302978596                       # number of demand (read+write) MSHR miss cycles
system.cpu.dcache.demand_mshr_miss_latency::total 646302978596                       # number of demand (read+write) MSHR miss cycles
system.cpu.dcache.overall_mshr_miss_latency::.switch_cpus.data 646302978596                       # number of overall MSHR miss cycles
system.cpu.dcache.overall_mshr_miss_latency::total 646302978596                       # number of overall MSHR miss cycles
system.cpu.dcache.demand_mshr_miss_rate::.switch_cpus.data     0.351767                       # mshr miss rate for demand accesses
system.cpu.dcache.demand_mshr_miss_rate::total     0.351767                       # mshr miss rate for demand accesses
system.cpu.dcache.overall_mshr_miss_rate::.switch_cpus.data     0.351767                       # mshr miss rate for overall accesses
system.cpu.dcache.overall_mshr_miss_rate::total     0.351767                       # mshr miss rate for overall accesses
system.cpu.dcache.demand_avg_mshr_miss_latency::.switch_cpus.data 82871.776372                       # average overall mshr miss latency
system.cpu.dcache.demand_avg_mshr_miss_latency::total 82871.776372                       # average overall mshr miss latency
system.cpu.dcache.overall_avg_mshr_miss_latency::.switch_cpus.data 82871.776372                       # average overall mshr miss latency
system.cpu.dcache.overall_avg_mshr_miss_latency::total 82871.776372                       # average overall mshr miss latency
system.cpu.dcache.replacements                7797807                       # number of replacements
system.cpu.dcache.ReadReq_hits::.cpu.data            1                       # number of ReadReq hits
system.cpu.dcache.ReadReq_hits::.switch_cpus.data      9019603                       # number of ReadReq hits
system.cpu.dcache.ReadReq_hits::total         9019604                       # number of ReadReq hits
system.cpu.dcache.ReadReq_misses::.cpu.data            3                       # number of ReadReq misses
system.cpu.dcache.ReadReq_misses::.switch_cpus.data      8538074                       # number of ReadReq misses
system.cpu.dcache.ReadReq_misses::total       8538077                       # number of ReadReq misses
system.cpu.dcache.ReadReq_miss_latency::.switch_cpus.data 694414887000                       # number of ReadReq miss cycles
system.cpu.dcache.ReadReq_miss_latency::total 694414887000                       # number of ReadReq miss cycles
system.cpu.dcache.ReadReq_accesses::.cpu.data            4                       # number of ReadReq accesses(hits+misses)
system.cpu.dcache.ReadReq_accesses::.switch_cpus.data     17557677                       # number of ReadReq accesses(hits+misses)
system.cpu.dcache.ReadReq_accesses::total     17557681                       # number of ReadReq accesses(hits+misses)
system.cpu.dcache.ReadReq_miss_rate::.cpu.data     0.750000                       # miss rate for ReadReq accesses
system.cpu.dcache.ReadReq_miss_rate::.switch_cpus.data     0.486287                       # miss rate for ReadReq accesses
system.cpu.dcache.ReadReq_miss_rate::total     0.486287                       # miss rate for ReadReq accesses
system.cpu.dcache.ReadReq_avg_miss_latency::.switch_cpus.data 81331.561076                       # average ReadReq miss latency
system.cpu.dcache.ReadReq_avg_miss_latency::total 81331.532498                       # average ReadReq miss latency
system.cpu.dcache.ReadReq_mshr_hits::.switch_cpus.data      1039019                       # number of ReadReq MSHR hits
system.cpu.dcache.ReadReq_mshr_hits::total      1039019                       # number of ReadReq MSHR hits
system.cpu.dcache.ReadReq_mshr_misses::.switch_cpus.data      7499055                       # number of ReadReq MSHR misses
system.cpu.dcache.ReadReq_mshr_misses::total      7499055                       # number of ReadReq MSHR misses
system.cpu.dcache.ReadReq_mshr_miss_latency::.switch_cpus.data 620345678000                       # number of ReadReq MSHR miss cycles
system.cpu.dcache.ReadReq_mshr_miss_latency::total 620345678000                       # number of ReadReq MSHR miss cycles
system.cpu.dcache.ReadReq_mshr_miss_rate::.switch_cpus.data     0.427110                       # mshr miss rate for ReadReq accesses
system.cpu.dcache.ReadReq_mshr_miss_rate::total     0.427110                       # mshr miss rate for ReadReq accesses
system.cpu.dcache.ReadReq_avg_mshr_miss_latency::.switch_cpus.data 82723.180187                       # average ReadReq mshr miss latency
system.cpu.dcache.ReadReq_avg_mshr_miss_latency::total 82723.180187                       # average ReadReq mshr miss latency
system.cpu.dcache.WriteReq_hits::.switch_cpus.data      4312989                       # number of WriteReq hits
system.cpu.dcache.WriteReq_hits::total        4312989                       # number of WriteReq hits
system.cpu.dcache.WriteReq_misses::.switch_cpus.data       299789                       # number of WriteReq misses
system.cpu.dcache.WriteReq_misses::total       299789                       # number of WriteReq misses
system.cpu.dcache.WriteReq_miss_latency::.switch_cpus.data  26257310596                       # number of WriteReq miss cycles
system.cpu.dcache.WriteReq_miss_latency::total  26257310596                       # number of WriteReq miss cycles
system.cpu.dcache.WriteReq_accesses::.switch_cpus.data      4612778                       # number of WriteReq accesses(hits+misses)
system.cpu.dcache.WriteReq_accesses::total      4612778                       # number of WriteReq accesses(hits+misses)
system.cpu.dcache.WriteReq_miss_rate::.switch_cpus.data     0.064991                       # miss rate for WriteReq accesses
system.cpu.dcache.WriteReq_miss_rate::total     0.064991                       # miss rate for WriteReq accesses
system.cpu.dcache.WriteReq_avg_miss_latency::.switch_cpus.data 87585.970786                       # average WriteReq miss latency
system.cpu.dcache.WriteReq_avg_miss_latency::total 87585.970786                       # average WriteReq miss latency
system.cpu.dcache.WriteReq_mshr_hits::.switch_cpus.data           13                       # number of WriteReq MSHR hits
system.cpu.dcache.WriteReq_mshr_hits::total           13                       # number of WriteReq MSHR hits
system.cpu.dcache.WriteReq_mshr_misses::.switch_cpus.data       299776                       # number of WriteReq MSHR misses
system.cpu.dcache.WriteReq_mshr_misses::total       299776                       # number of WriteReq MSHR misses
system.cpu.dcache.WriteReq_mshr_miss_latency::.switch_cpus.data  25957300596                       # number of WriteReq MSHR miss cycles
system.cpu.dcache.WriteReq_mshr_miss_latency::total  25957300596                       # number of WriteReq MSHR miss cycles
system.cpu.dcache.WriteReq_mshr_miss_rate::.switch_cpus.data     0.064988                       # mshr miss rate for WriteReq accesses
system.cpu.dcache.WriteReq_mshr_miss_rate::total     0.064988                       # mshr miss rate for WriteReq accesses
system.cpu.dcache.WriteReq_avg_mshr_miss_latency::.switch_cpus.data 86588.988431                       # average WriteReq mshr miss latency
system.cpu.dcache.WriteReq_avg_mshr_miss_latency::total 86588.988431                       # average WriteReq mshr miss latency
system.cpu.dcache.tags.pwrStateResidencyTicks::UNDEFINED 93064299906500                       # Cumulative time (in ticks) in various power states
system.cpu.dcache.tags.tagsinuse             3.115883                       # Cycle average of tags in use
system.cpu.dcache.tags.total_refs            21131424                       # Total number of references to valid blocks.
system.cpu.dcache.tags.sampled_refs           7798831                       # Sample count of references to valid blocks.
system.cpu.dcache.tags.avg_refs              2.709563                       # Average number of references to valid blocks.
system.cpu.dcache.tags.warmup_cycle      92781095431500                       # Cycle when the warmup percentage was hit.
system.cpu.dcache.tags.occ_blocks::.cpu.data     0.000002                       # Average occupied blocks per requestor
system.cpu.dcache.tags.occ_blocks::.switch_cpus.data     3.115882                       # Average occupied blocks per requestor
system.cpu.dcache.tags.occ_percent::.cpu.data     0.000000                       # Average percentage of cache occupancy
system.cpu.dcache.tags.occ_percent::.switch_cpus.data     0.003043                       # Average percentage of cache occupancy
system.cpu.dcache.tags.occ_percent::total     0.003043                       # Average percentage of cache occupancy
system.cpu.dcache.tags.occ_task_id_blocks::1024         1024                       # Occupied blocks per task id
system.cpu.dcache.tags.age_task_id_blocks_1024::0          337                       # Occupied blocks per task id
system.cpu.dcache.tags.age_task_id_blocks_1024::1          684                       # Occupied blocks per task id
system.cpu.dcache.tags.age_task_id_blocks_1024::2            3                       # Occupied blocks per task id
system.cpu.dcache.tags.occ_task_id_percent::1024            1                       # Percentage of cache occupancy per task id
system.cpu.dcache.tags.tag_accesses          52139749                       # Number of tag accesses
system.cpu.dcache.tags.data_accesses         52139749                       # Number of data accesses

---------- End Simulation Statistics   ----------
