
---------- Begin Simulation Statistics ----------
final_tick                               190180773837000                       # Number of ticks from beginning of simulation (restored from checkpoints and never reset)
host_inst_rate                                  26219                       # Simulator instruction rate (inst/s)
host_mem_usage                                 828112                       # Number of bytes of host memory used
host_op_rate                                    46051                       # Simulator op (including micro ops) rate (op/s)
host_seconds                                   381.41                       # Real time elapsed on the host
host_tick_rate                               79283978                       # Simulator tick rate (ticks/s)
sim_freq                                 1000000000000                       # Frequency of simulated ticks
sim_insts                                    10000011                       # Number of instructions simulated
sim_ops                                      17564244                       # Number of ops (including micro ops) simulated
sim_seconds                                  0.030240                       # Number of seconds simulated
sim_ticks                                 30239568250                       # Number of ticks simulated
system.cpu.Branches                                 4                       # Number of branches fetched
system.cpu.committedInsts                          10                       # Number of instructions committed
system.cpu.committedOps                            20                       # Number of ops (including micro ops) committed
system.cpu.dtb.rdAccesses                           2                       # TLB accesses on read requests
system.cpu.dtb.rdMisses                             1                       # TLB misses on read requests
system.cpu.dtb.wrAccesses                           0                       # TLB accesses on write requests
system.cpu.dtb.wrMisses                             0                       # TLB misses on write requests
system.cpu.idle_fraction                            0                       # Percentage of idle cycles
system.cpu.itb.rdAccesses                           0                       # TLB accesses on read requests
system.cpu.itb.rdMisses                             0                       # TLB misses on read requests
system.cpu.itb.wrAccesses                          12                       # TLB accesses on write requests
system.cpu.itb.wrMisses                             0                       # TLB misses on write requests
system.cpu.not_idle_fraction                        1                       # Percentage of non-idle cycles
system.cpu.numCycles                               22                       # number of cpu cycles simulated
system.cpu.numWorkItemsCompleted                    0                       # number of work items this cpu completed
system.cpu.numWorkItemsStarted                      0                       # number of work items this cpu started
system.cpu.num_busy_cycles                         22                       # Number of busy cycles
system.cpu.num_cc_register_reads                   21                       # number of times the CC registers were read
system.cpu.num_cc_register_writes                  10                       # number of times the CC registers were written
system.cpu.num_conditional_control_insts            4                       # number of instructions that are conditional controls
system.cpu.num_fp_alu_accesses                      0                       # Number of float alu accesses
system.cpu.num_fp_insts                             0                       # number of float instructions
system.cpu.num_fp_register_reads                    0                       # number of times the floating registers were read
system.cpu.num_fp_register_writes                   0                       # number of times the floating registers were written
system.cpu.num_func_calls                           0                       # number of times a function call or return occured
system.cpu.num_idle_cycles                          0                       # Number of idle cycles
system.cpu.num_int_alu_accesses                    20                       # Number of integer alu accesses
system.cpu.num_int_insts                           20                       # number of integer instructions
system.cpu.num_int_register_reads                  32                       # number of times the integer registers were read
system.cpu.num_int_register_writes                 16                       # number of times the integer registers were written
system.cpu.num_load_insts                           2                       # Number of load instructions
system.cpu.num_mem_refs                             2                       # number of memory refs
system.cpu.num_store_insts                          0                       # Number of store instructions
system.cpu.num_vec_alu_accesses                     0                       # Number of vector alu accesses
system.cpu.num_vec_insts                            0                       # number of vector instructions
system.cpu.num_vec_register_reads                   0                       # number of times the vector registers were read
system.cpu.num_vec_register_writes                  0                       # number of times the vector registers were written
system.cpu.op_class::No_OpClass                     0      0.00%      0.00% # Class of executed instruction
system.cpu.op_class::IntAlu                        18     90.00%     90.00% # Class of executed instruction
system.cpu.op_class::IntMult                        0      0.00%     90.00% # Class of executed instruction
system.cpu.op_class::IntDiv                         0      0.00%     90.00% # Class of executed instruction
system.cpu.op_class::FloatAdd                       0      0.00%     90.00% # Class of executed instruction
system.cpu.op_class::FloatCmp                       0      0.00%     90.00% # Class of executed instruction
system.cpu.op_class::FloatCvt                       0      0.00%     90.00% # Class of executed instruction
system.cpu.op_class::FloatMult                      0      0.00%     90.00% # Class of executed instruction
system.cpu.op_class::FloatMultAcc                   0      0.00%     90.00% # Class of executed instruction
system.cpu.op_class::FloatDiv                       0      0.00%     90.00% # Class of executed instruction
system.cpu.op_class::FloatMisc                      0      0.00%     90.00% # Class of executed instruction
system.cpu.op_class::FloatSqrt                      0      0.00%     90.00% # Class of executed instruction
system.cpu.op_class::SimdAdd                        0      0.00%     90.00% # Class of executed instruction
system.cpu.op_class::SimdAddAcc                     0      0.00%     90.00% # Class of executed instruction
system.cpu.op_class::SimdAlu                        0      0.00%     90.00% # Class of executed instruction
system.cpu.op_class::SimdCmp                        0      0.00%     90.00% # Class of executed instruction
system.cpu.op_class::SimdCvt                        0      0.00%     90.00% # Class of executed instruction
system.cpu.op_class::SimdMisc                       0      0.00%     90.00% # Class of executed instruction
system.cpu.op_class::SimdMult                       0      0.00%     90.00% # Class of executed instruction
system.cpu.op_class::SimdMultAcc                    0      0.00%     90.00% # Class of executed instruction
system.cpu.op_class::SimdShift                      0      0.00%     90.00% # Class of executed instruction
system.cpu.op_class::SimdShiftAcc                   0      0.00%     90.00% # Class of executed instruction
system.cpu.op_class::SimdDiv                        0      0.00%     90.00% # Class of executed instruction
system.cpu.op_class::SimdSqrt                       0      0.00%     90.00% # Class of executed instruction
system.cpu.op_class::SimdFloatAdd                   0      0.00%     90.00% # Class of executed instruction
system.cpu.op_class::SimdFloatAlu                   0      0.00%     90.00% # Class of executed instruction
system.cpu.op_class::SimdFloatCmp                   0      0.00%     90.00% # Class of executed instruction
system.cpu.op_class::SimdFloatCvt                   0      0.00%     90.00% # Class of executed instruction
system.cpu.op_class::SimdFloatDiv                   0      0.00%     90.00% # Class of executed instruction
system.cpu.op_class::SimdFloatMisc                  0      0.00%     90.00% # Class of executed instruction
system.cpu.op_class::SimdFloatMult                  0      0.00%     90.00% # Class of executed instruction
system.cpu.op_class::SimdFloatMultAcc               0      0.00%     90.00% # Class of executed instruction
system.cpu.op_class::SimdFloatSqrt                  0      0.00%     90.00% # Class of executed instruction
system.cpu.op_class::SimdReduceAdd                  0      0.00%     90.00% # Class of executed instruction
system.cpu.op_class::SimdReduceAlu                  0      0.00%     90.00% # Class of executed instruction
system.cpu.op_class::SimdReduceCmp                  0      0.00%     90.00% # Class of executed instruction
system.cpu.op_class::SimdFloatReduceAdd             0      0.00%     90.00% # Class of executed instruction
system.cpu.op_class::SimdFloatReduceCmp             0      0.00%     90.00% # Class of executed instruction
system.cpu.op_class::SimdAes                        0      0.00%     90.00% # Class of executed instruction
system.cpu.op_class::SimdAesMix                     0      0.00%     90.00% # Class of executed instruction
system.cpu.op_class::SimdSha1Hash                   0      0.00%     90.00% # Class of executed instruction
system.cpu.op_class::SimdSha1Hash2                  0      0.00%     90.00% # Class of executed instruction
system.cpu.op_class::SimdSha256Hash                 0      0.00%     90.00% # Class of executed instruction
system.cpu.op_class::SimdSha256Hash2                0      0.00%     90.00% # Class of executed instruction
system.cpu.op_class::SimdShaSigma2                  0      0.00%     90.00% # Class of executed instruction
system.cpu.op_class::SimdShaSigma3                  0      0.00%     90.00% # Class of executed instruction
system.cpu.op_class::SimdPredAlu                    0      0.00%     90.00% # Class of executed instruction
system.cpu.op_class::MemRead                        2     10.00%    100.00% # Class of executed instruction
system.cpu.op_class::MemWrite                       0      0.00%    100.00% # Class of executed instruction
system.cpu.op_class::FloatMemRead                   0      0.00%    100.00% # Class of executed instruction
system.cpu.op_class::FloatMemWrite                  0      0.00%    100.00% # Class of executed instruction
system.cpu.op_class::IprAccess                      0      0.00%    100.00% # Class of executed instruction
system.cpu.op_class::InstPrefetch                   0      0.00%    100.00% # Class of executed instruction
system.cpu.op_class::total                         20                       # Class of executed instruction
system.cpu.workload.numSyscalls                     0                       # Number of system calls
system.membus.snoop_filter.hit_multi_requests            0                       # Number of requests hitting in the snoop filter with multiple (>1) holders of the requested data.
system.membus.snoop_filter.hit_multi_snoops            0                       # Number of snoops hitting in the snoop filter with multiple (>1) holders of the requested data.
system.membus.snoop_filter.hit_single_requests       895015                       # Number of requests hitting in the snoop filter with a single holder of the requested data.
system.membus.snoop_filter.hit_single_snoops            0                       # Number of snoops hitting in the snoop filter with a single holder of the requested data.
system.membus.snoop_filter.tot_requests       1794257                       # Total number of requests made to the snoop filter.
system.membus.snoop_filter.tot_snoops               0                       # Total number of snoops made to the snoop filter.
system.switch_cpus.branchPred.BTBCorrect            0                       # Number of correct BTB predictions (this stat may not work properly.
system.switch_cpus.branchPred.BTBHitPct      0.000000                       # BTB Hit Percentage
system.switch_cpus.branchPred.BTBHits               0                       # Number of BTB hits
system.switch_cpus.branchPred.BTBLookups      3100409                       # Number of BTB lookups
system.switch_cpus.branchPred.RASInCorrect            1                       # Number of incorrect RAS predictions.
system.switch_cpus.branchPred.condIncorrect       174390                       # Number of conditional branches incorrect
system.switch_cpus.branchPred.condPredicted      4214086                       # Number of conditional branches predicted
system.switch_cpus.branchPred.indirectHits      1895743                       # Number of indirect target hits.
system.switch_cpus.branchPred.indirectLookups      3100409                       # Number of indirect predictor lookups.
system.switch_cpus.branchPred.indirectMisses      1204666                       # Number of indirect misses.
system.switch_cpus.branchPred.lookups         4273723                       # Number of BP lookups
system.switch_cpus.branchPred.usedRAS           32957                       # Number of times the RAS was used to get a target.
system.switch_cpus.branchPredindirectMispredicted       118025                       # Number of mispredicted indirect branches.
system.switch_cpus.cc_regfile_reads          15673436                       # number of cc regfile reads
system.switch_cpus.cc_regfile_writes          9225517                       # number of cc regfile writes
system.switch_cpus.commit.amos                      0                       # Number of atomic instructions committed
system.switch_cpus.commit.branchMispredicts       174410                       # The number of times a branch was mispredicted
system.switch_cpus.commit.branches            2713377                       # Number of branches committed
system.switch_cpus.commit.bw_lim_events       1377112                       # number cycles where commit BW limit reached
system.switch_cpus.commit.commitSquashedInsts      6570341                       # The number of squashed insts skipped by commit
system.switch_cpus.commit.committedInsts     10000001                       # Number of instructions committed
system.switch_cpus.commit.committedOps       17564224                       # Number of ops (including micro ops) committed
system.switch_cpus.commit.committed_per_cycle::samples     59456776                       # Number of insts commited each cycle
system.switch_cpus.commit.committed_per_cycle::mean     0.295412                       # Number of insts commited each cycle
system.switch_cpus.commit.committed_per_cycle::stdev     1.318775                       # Number of insts commited each cycle
system.switch_cpus.commit.committed_per_cycle::underflows            0      0.00%      0.00% # Number of insts commited each cycle
system.switch_cpus.commit.committed_per_cycle::0     55258821     92.94%     92.94% # Number of insts commited each cycle
system.switch_cpus.commit.committed_per_cycle::1      1112690      1.87%     94.81% # Number of insts commited each cycle
system.switch_cpus.commit.committed_per_cycle::2       399551      0.67%     95.48% # Number of insts commited each cycle
system.switch_cpus.commit.committed_per_cycle::3       936331      1.57%     97.06% # Number of insts commited each cycle
system.switch_cpus.commit.committed_per_cycle::4       161919      0.27%     97.33% # Number of insts commited each cycle
system.switch_cpus.commit.committed_per_cycle::5       119903      0.20%     97.53% # Number of insts commited each cycle
system.switch_cpus.commit.committed_per_cycle::6        53791      0.09%     97.62% # Number of insts commited each cycle
system.switch_cpus.commit.committed_per_cycle::7        36658      0.06%     97.68% # Number of insts commited each cycle
system.switch_cpus.commit.committed_per_cycle::8      1377112      2.32%    100.00% # Number of insts commited each cycle
system.switch_cpus.commit.committed_per_cycle::overflows            0      0.00%    100.00% # Number of insts commited each cycle
system.switch_cpus.commit.committed_per_cycle::min_value            0                       # Number of insts commited each cycle
system.switch_cpus.commit.committed_per_cycle::max_value            8                       # Number of insts commited each cycle
system.switch_cpus.commit.committed_per_cycle::total     59456776                       # Number of insts commited each cycle
system.switch_cpus.commit.fp_insts                  0                       # Number of committed floating point instructions.
system.switch_cpus.commit.function_calls         2082                       # Number of function calls committed.
system.switch_cpus.commit.int_insts          17541011                       # Number of committed integer instructions.
system.switch_cpus.commit.loads               3923977                       # Number of loads committed
system.switch_cpus.commit.membars                   0                       # Number of memory barriers committed
system.switch_cpus.commit.op_class_0::No_OpClass        20038      0.11%      0.11% # Class of committed instruction
system.switch_cpus.commit.op_class_0::IntAlu     13353408     76.03%     76.14% # Class of committed instruction
system.switch_cpus.commit.op_class_0::IntMult          330      0.00%     76.14% # Class of committed instruction
system.switch_cpus.commit.op_class_0::IntDiv            0      0.00%     76.14% # Class of committed instruction
system.switch_cpus.commit.op_class_0::FloatAdd            0      0.00%     76.14% # Class of committed instruction
system.switch_cpus.commit.op_class_0::FloatCmp            0      0.00%     76.14% # Class of committed instruction
system.switch_cpus.commit.op_class_0::FloatCvt            0      0.00%     76.14% # Class of committed instruction
system.switch_cpus.commit.op_class_0::FloatMult            0      0.00%     76.14% # Class of committed instruction
system.switch_cpus.commit.op_class_0::FloatMultAcc            0      0.00%     76.14% # Class of committed instruction
system.switch_cpus.commit.op_class_0::FloatDiv            0      0.00%     76.14% # Class of committed instruction
system.switch_cpus.commit.op_class_0::FloatMisc            0      0.00%     76.14% # Class of committed instruction
system.switch_cpus.commit.op_class_0::FloatSqrt            0      0.00%     76.14% # Class of committed instruction
system.switch_cpus.commit.op_class_0::SimdAdd            0      0.00%     76.14% # Class of committed instruction
system.switch_cpus.commit.op_class_0::SimdAddAcc            0      0.00%     76.14% # Class of committed instruction
system.switch_cpus.commit.op_class_0::SimdAlu            0      0.00%     76.14% # Class of committed instruction
system.switch_cpus.commit.op_class_0::SimdCmp            0      0.00%     76.14% # Class of committed instruction
system.switch_cpus.commit.op_class_0::SimdCvt            0      0.00%     76.14% # Class of committed instruction
system.switch_cpus.commit.op_class_0::SimdMisc            0      0.00%     76.14% # Class of committed instruction
system.switch_cpus.commit.op_class_0::SimdMult            0      0.00%     76.14% # Class of committed instruction
system.switch_cpus.commit.op_class_0::SimdMultAcc            0      0.00%     76.14% # Class of committed instruction
system.switch_cpus.commit.op_class_0::SimdShift            0      0.00%     76.14% # Class of committed instruction
system.switch_cpus.commit.op_class_0::SimdShiftAcc            0      0.00%     76.14% # Class of committed instruction
system.switch_cpus.commit.op_class_0::SimdDiv            0      0.00%     76.14% # Class of committed instruction
system.switch_cpus.commit.op_class_0::SimdSqrt            0      0.00%     76.14% # Class of committed instruction
system.switch_cpus.commit.op_class_0::SimdFloatAdd            0      0.00%     76.14% # Class of committed instruction
system.switch_cpus.commit.op_class_0::SimdFloatAlu            0      0.00%     76.14% # Class of committed instruction
system.switch_cpus.commit.op_class_0::SimdFloatCmp            0      0.00%     76.14% # Class of committed instruction
system.switch_cpus.commit.op_class_0::SimdFloatCvt            0      0.00%     76.14% # Class of committed instruction
system.switch_cpus.commit.op_class_0::SimdFloatDiv            0      0.00%     76.14% # Class of committed instruction
system.switch_cpus.commit.op_class_0::SimdFloatMisc            0      0.00%     76.14% # Class of committed instruction
system.switch_cpus.commit.op_class_0::SimdFloatMult            0      0.00%     76.14% # Class of committed instruction
system.switch_cpus.commit.op_class_0::SimdFloatMultAcc            0      0.00%     76.14% # Class of committed instruction
system.switch_cpus.commit.op_class_0::SimdFloatSqrt            0      0.00%     76.14% # Class of committed instruction
system.switch_cpus.commit.op_class_0::SimdReduceAdd            0      0.00%     76.14% # Class of committed instruction
system.switch_cpus.commit.op_class_0::SimdReduceAlu            0      0.00%     76.14% # Class of committed instruction
system.switch_cpus.commit.op_class_0::SimdReduceCmp            0      0.00%     76.14% # Class of committed instruction
system.switch_cpus.commit.op_class_0::SimdFloatReduceAdd            0      0.00%     76.14% # Class of committed instruction
system.switch_cpus.commit.op_class_0::SimdFloatReduceCmp            0      0.00%     76.14% # Class of committed instruction
system.switch_cpus.commit.op_class_0::SimdAes            0      0.00%     76.14% # Class of committed instruction
system.switch_cpus.commit.op_class_0::SimdAesMix            0      0.00%     76.14% # Class of committed instruction
system.switch_cpus.commit.op_class_0::SimdSha1Hash            0      0.00%     76.14% # Class of committed instruction
system.switch_cpus.commit.op_class_0::SimdSha1Hash2            0      0.00%     76.14% # Class of committed instruction
system.switch_cpus.commit.op_class_0::SimdSha256Hash            0      0.00%     76.14% # Class of committed instruction
system.switch_cpus.commit.op_class_0::SimdSha256Hash2            0      0.00%     76.14% # Class of committed instruction
system.switch_cpus.commit.op_class_0::SimdShaSigma2            0      0.00%     76.14% # Class of committed instruction
system.switch_cpus.commit.op_class_0::SimdShaSigma3            0      0.00%     76.14% # Class of committed instruction
system.switch_cpus.commit.op_class_0::SimdPredAlu            0      0.00%     76.14% # Class of committed instruction
system.switch_cpus.commit.op_class_0::MemRead      3923977     22.34%     98.48% # Class of committed instruction
system.switch_cpus.commit.op_class_0::MemWrite       266471      1.52%    100.00% # Class of committed instruction
system.switch_cpus.commit.op_class_0::FloatMemRead            0      0.00%    100.00% # Class of committed instruction
system.switch_cpus.commit.op_class_0::FloatMemWrite            0      0.00%    100.00% # Class of committed instruction
system.switch_cpus.commit.op_class_0::IprAccess            0      0.00%    100.00% # Class of committed instruction
system.switch_cpus.commit.op_class_0::InstPrefetch            0      0.00%    100.00% # Class of committed instruction
system.switch_cpus.commit.op_class_0::total     17564224                       # Class of committed instruction
system.switch_cpus.commit.refs                4190448                       # Number of memory references committed
system.switch_cpus.commit.swp_count                 0                       # Number of s/w prefetches committed
system.switch_cpus.commit.vec_insts                 0                       # Number of committed Vector instructions.
system.switch_cpus.committedInsts            10000001                       # Number of Instructions Simulated
system.switch_cpus.committedOps              17564224                       # Number of Ops (including micro ops) Simulated
system.switch_cpus.cpi                       6.047911                       # CPI: Cycles Per Instruction
system.switch_cpus.cpi_total                 6.047911                       # CPI: Total CPI of All Threads
system.switch_cpus.decode.BlockedCycles      55516210                       # Number of cycles decode is blocked
system.switch_cpus.decode.DecodedInsts       26462812                       # Number of instructions handled by decode
system.switch_cpus.decode.IdleCycles          1213862                       # Number of cycles decode is idle
system.switch_cpus.decode.RunCycles           2007314                       # Number of cycles decode is running
system.switch_cpus.decode.SquashCycles         174803                       # Number of cycles decode is squashing
system.switch_cpus.decode.UnblockCycles       1562534                       # Number of cycles decode is unblocking
system.switch_cpus.dtb.rdAccesses             4597141                       # TLB accesses on read requests
system.switch_cpus.dtb.rdMisses               1391337                       # TLB misses on read requests
system.switch_cpus.dtb.wrAccesses              386512                       # TLB accesses on write requests
system.switch_cpus.dtb.wrMisses                 10070                       # TLB misses on write requests
system.switch_cpus.fetch.Branches             4273723                       # Number of branches that fetch encountered
system.switch_cpus.fetch.CacheLines            888907                       # Number of cache lines fetched
system.switch_cpus.fetch.Cycles              59314517                       # Number of cycles fetch has run and was not squashing or blocked
system.switch_cpus.fetch.IcacheSquashes         34105                       # Number of outstanding Icache misses that were squashed
system.switch_cpus.fetch.Insts               16672404                       # Number of instructions fetch has processed
system.switch_cpus.fetch.MiscStallCycles           20                       # Number of cycles fetch has spent waiting on interrupts, or bad addresses, or out of MSHRs
system.switch_cpus.fetch.PendingTrapStallCycles          199                       # Number of stall cycles due to pending traps
system.switch_cpus.fetch.SquashCycles          349606                       # Number of cycles fetch has spent squashing
system.switch_cpus.fetch.branchRate          0.070664                       # Number of branch fetches per cycle
system.switch_cpus.fetch.icacheStallCycles       985191                       # Number of cycles fetch is stalled on an Icache miss
system.switch_cpus.fetch.predictedBranches      1928700                       # Number of branches that fetch has predicted taken
system.switch_cpus.fetch.rate                0.275672                       # Number of inst fetches per cycle
system.switch_cpus.fetch.rateDist::samples     60474730                       # Number of instructions fetched each cycle (Total)
system.switch_cpus.fetch.rateDist::mean      0.480131                       # Number of instructions fetched each cycle (Total)
system.switch_cpus.fetch.rateDist::stdev     1.735407                       # Number of instructions fetched each cycle (Total)
system.switch_cpus.fetch.rateDist::underflows            0      0.00%      0.00% # Number of instructions fetched each cycle (Total)
system.switch_cpus.fetch.rateDist::0         55475472     91.73%     91.73% # Number of instructions fetched each cycle (Total)
system.switch_cpus.fetch.rateDist::1           297124      0.49%     92.22% # Number of instructions fetched each cycle (Total)
system.switch_cpus.fetch.rateDist::2           311111      0.51%     92.74% # Number of instructions fetched each cycle (Total)
system.switch_cpus.fetch.rateDist::3           331593      0.55%     93.29% # Number of instructions fetched each cycle (Total)
system.switch_cpus.fetch.rateDist::4           559361      0.92%     94.21% # Number of instructions fetched each cycle (Total)
system.switch_cpus.fetch.rateDist::5           811587      1.34%     95.55% # Number of instructions fetched each cycle (Total)
system.switch_cpus.fetch.rateDist::6           232252      0.38%     95.94% # Number of instructions fetched each cycle (Total)
system.switch_cpus.fetch.rateDist::7           217078      0.36%     96.30% # Number of instructions fetched each cycle (Total)
system.switch_cpus.fetch.rateDist::8          2239152      3.70%    100.00% # Number of instructions fetched each cycle (Total)
system.switch_cpus.fetch.rateDist::overflows            0      0.00%    100.00% # Number of instructions fetched each cycle (Total)
system.switch_cpus.fetch.rateDist::min_value            0                       # Number of instructions fetched each cycle (Total)
system.switch_cpus.fetch.rateDist::max_value            8                       # Number of instructions fetched each cycle (Total)
system.switch_cpus.fetch.rateDist::total     60474730                       # Number of instructions fetched each cycle (Total)
system.switch_cpus.fp_regfile_writes               56                       # number of floating regfile writes
system.switch_cpus.idleCycles                    4384                       # Total number of cycles that the CPU has spent unscheduled due to idling
system.switch_cpus.iew.branchMispredicts       222160                       # Number of branch mispredicts detected at execute
system.switch_cpus.iew.exec_branches          3103128                       # Number of branches executed
system.switch_cpus.iew.exec_nop                     0                       # number of nop insts executed
system.switch_cpus.iew.exec_rate             0.548535                       # Inst execution rate
system.switch_cpus.iew.exec_refs             16508578                       # number of memory reference insts executed
system.switch_cpus.iew.exec_stores             386500                       # Number of stores executed
system.switch_cpus.iew.exec_swp                     0                       # number of swp insts executed
system.switch_cpus.iew.iewBlockCycles        19388201                       # Number of cycles IEW is blocking
system.switch_cpus.iew.iewDispLoadInsts       5101752                       # Number of dispatched load instructions
system.switch_cpus.iew.iewDispNonSpecInsts            0                       # Number of dispatched non-speculative instructions
system.switch_cpus.iew.iewDispSquashedInsts        27292                       # Number of squashed instructions skipped by dispatch
system.switch_cpus.iew.iewDispStoreInsts       572659                       # Number of dispatched store instructions
system.switch_cpus.iew.iewDispatchedInsts     24127565                       # Number of instructions dispatched to IQ
system.switch_cpus.iew.iewExecLoadInsts      16122078                       # Number of load instructions executed
system.switch_cpus.iew.iewExecSquashedInsts       383330                       # Number of squashed instructions skipped in execute
system.switch_cpus.iew.iewExecutedInsts      33174916                       # Number of executed instructions
system.switch_cpus.iew.iewIQFullEvents         255740                       # Number of times the IQ has become full, causing a stall
system.switch_cpus.iew.iewIdleCycles                0                       # Number of cycles IEW is idle
system.switch_cpus.iew.iewLSQFullEvents       7188813                       # Number of times the LSQ has become full, causing a stall
system.switch_cpus.iew.iewSquashCycles         174803                       # Number of cycles IEW is squashing
system.switch_cpus.iew.iewUnblockCycles       7646288                       # Number of cycles IEW is unblocking
system.switch_cpus.iew.lsq.thread0.blockedLoads            0                       # Number of blocked loads due to partial load-store forwarding
system.switch_cpus.iew.lsq.thread0.cacheBlocked      1213517                       # Number of times an access to memory failed due to the cache being blocked
system.switch_cpus.iew.lsq.thread0.forwLoads        44076                       # Number of loads that had data forwarded from stores
system.switch_cpus.iew.lsq.thread0.ignoredResponses          427                       # Number of memory responses ignored because the instruction is squashed
system.switch_cpus.iew.lsq.thread0.invAddrLoads            0                       # Number of loads ignored due to an invalid address
system.switch_cpus.iew.lsq.thread0.invAddrSwpfs            0                       # Number of software prefetches ignored due to an invalid address
system.switch_cpus.iew.lsq.thread0.memOrderViolation          790                       # Number of memory ordering violations
system.switch_cpus.iew.lsq.thread0.rescheduledLoads            0                       # Number of loads that were rescheduled
system.switch_cpus.iew.lsq.thread0.squashedLoads      1177745                       # Number of loads squashed
system.switch_cpus.iew.lsq.thread0.squashedStores       306188                       # Number of stores squashed
system.switch_cpus.iew.memOrderViolationEvents          790                       # Number of memory order violations
system.switch_cpus.iew.predictedNotTakenIncorrect       180873                       # Number of branches that were predicted not taken incorrectly
system.switch_cpus.iew.predictedTakenIncorrect        41287                       # Number of branches that were predicted taken incorrectly
system.switch_cpus.iew.wb_consumers          22057362                       # num instructions consuming a value
system.switch_cpus.iew.wb_count              21293200                       # cumulative count of insts written-back
system.switch_cpus.iew.wb_fanout             0.708403                       # average fanout of values written-back
system.switch_cpus.iew.wb_producers          15625512                       # num instructions producing a value
system.switch_cpus.iew.wb_rate               0.352075                       # insts written-back per cycle
system.switch_cpus.iew.wb_sent               21352042                       # cumulative count of insts sent to commit
system.switch_cpus.int_regfile_reads         50661959                       # number of integer regfile reads
system.switch_cpus.int_regfile_writes        17742181                       # number of integer regfile writes
system.switch_cpus.ipc                       0.165346                       # IPC: Instructions Per Cycle
system.switch_cpus.ipc_total                 0.165346                       # IPC: Total IPC of All Threads
system.switch_cpus.iq.FU_type_0::No_OpClass        99972      0.30%      0.30% # Type of FU issued
system.switch_cpus.iq.FU_type_0::IntAlu      16845646     50.20%     50.50% # Type of FU issued
system.switch_cpus.iq.FU_type_0::IntMult          526      0.00%     50.50% # Type of FU issued
system.switch_cpus.iq.FU_type_0::IntDiv             0      0.00%     50.50% # Type of FU issued
system.switch_cpus.iq.FU_type_0::FloatAdd            0      0.00%     50.50% # Type of FU issued
system.switch_cpus.iq.FU_type_0::FloatCmp            0      0.00%     50.50% # Type of FU issued
system.switch_cpus.iq.FU_type_0::FloatCvt            0      0.00%     50.50% # Type of FU issued
system.switch_cpus.iq.FU_type_0::FloatMult            0      0.00%     50.50% # Type of FU issued
system.switch_cpus.iq.FU_type_0::FloatMultAcc            0      0.00%     50.50% # Type of FU issued
system.switch_cpus.iq.FU_type_0::FloatDiv            0      0.00%     50.50% # Type of FU issued
system.switch_cpus.iq.FU_type_0::FloatMisc            0      0.00%     50.50% # Type of FU issued
system.switch_cpus.iq.FU_type_0::FloatSqrt            0      0.00%     50.50% # Type of FU issued
system.switch_cpus.iq.FU_type_0::SimdAdd            0      0.00%     50.50% # Type of FU issued
system.switch_cpus.iq.FU_type_0::SimdAddAcc            0      0.00%     50.50% # Type of FU issued
system.switch_cpus.iq.FU_type_0::SimdAlu            0      0.00%     50.50% # Type of FU issued
system.switch_cpus.iq.FU_type_0::SimdCmp            0      0.00%     50.50% # Type of FU issued
system.switch_cpus.iq.FU_type_0::SimdCvt            0      0.00%     50.50% # Type of FU issued
system.switch_cpus.iq.FU_type_0::SimdMisc            0      0.00%     50.50% # Type of FU issued
system.switch_cpus.iq.FU_type_0::SimdMult            0      0.00%     50.50% # Type of FU issued
system.switch_cpus.iq.FU_type_0::SimdMultAcc            0      0.00%     50.50% # Type of FU issued
system.switch_cpus.iq.FU_type_0::SimdShift            0      0.00%     50.50% # Type of FU issued
system.switch_cpus.iq.FU_type_0::SimdShiftAcc            0      0.00%     50.50% # Type of FU issued
system.switch_cpus.iq.FU_type_0::SimdDiv            0      0.00%     50.50% # Type of FU issued
system.switch_cpus.iq.FU_type_0::SimdSqrt            0      0.00%     50.50% # Type of FU issued
system.switch_cpus.iq.FU_type_0::SimdFloatAdd            0      0.00%     50.50% # Type of FU issued
system.switch_cpus.iq.FU_type_0::SimdFloatAlu            0      0.00%     50.50% # Type of FU issued
system.switch_cpus.iq.FU_type_0::SimdFloatCmp            0      0.00%     50.50% # Type of FU issued
system.switch_cpus.iq.FU_type_0::SimdFloatCvt            0      0.00%     50.50% # Type of FU issued
system.switch_cpus.iq.FU_type_0::SimdFloatDiv            0      0.00%     50.50% # Type of FU issued
system.switch_cpus.iq.FU_type_0::SimdFloatMisc            0      0.00%     50.50% # Type of FU issued
system.switch_cpus.iq.FU_type_0::SimdFloatMult            0      0.00%     50.50% # Type of FU issued
system.switch_cpus.iq.FU_type_0::SimdFloatMultAcc            0      0.00%     50.50% # Type of FU issued
system.switch_cpus.iq.FU_type_0::SimdFloatSqrt            0      0.00%     50.50% # Type of FU issued
system.switch_cpus.iq.FU_type_0::SimdReduceAdd            0      0.00%     50.50% # Type of FU issued
system.switch_cpus.iq.FU_type_0::SimdReduceAlu            0      0.00%     50.50% # Type of FU issued
system.switch_cpus.iq.FU_type_0::SimdReduceCmp            0      0.00%     50.50% # Type of FU issued
system.switch_cpus.iq.FU_type_0::SimdFloatReduceAdd            0      0.00%     50.50% # Type of FU issued
system.switch_cpus.iq.FU_type_0::SimdFloatReduceCmp            0      0.00%     50.50% # Type of FU issued
system.switch_cpus.iq.FU_type_0::SimdAes            0      0.00%     50.50% # Type of FU issued
system.switch_cpus.iq.FU_type_0::SimdAesMix            0      0.00%     50.50% # Type of FU issued
system.switch_cpus.iq.FU_type_0::SimdSha1Hash            0      0.00%     50.50% # Type of FU issued
system.switch_cpus.iq.FU_type_0::SimdSha1Hash2            0      0.00%     50.50% # Type of FU issued
system.switch_cpus.iq.FU_type_0::SimdSha256Hash            0      0.00%     50.50% # Type of FU issued
system.switch_cpus.iq.FU_type_0::SimdSha256Hash2            0      0.00%     50.50% # Type of FU issued
system.switch_cpus.iq.FU_type_0::SimdShaSigma2            0      0.00%     50.50% # Type of FU issued
system.switch_cpus.iq.FU_type_0::SimdShaSigma3            0      0.00%     50.50% # Type of FU issued
system.switch_cpus.iq.FU_type_0::SimdPredAlu            0      0.00%     50.50% # Type of FU issued
system.switch_cpus.iq.FU_type_0::MemRead     16202120     48.28%     98.78% # Type of FU issued
system.switch_cpus.iq.FU_type_0::MemWrite       409984      1.22%    100.00% # Type of FU issued
system.switch_cpus.iq.FU_type_0::FloatMemRead            0      0.00%    100.00% # Type of FU issued
system.switch_cpus.iq.FU_type_0::FloatMemWrite            0      0.00%    100.00% # Type of FU issued
system.switch_cpus.iq.FU_type_0::IprAccess            0      0.00%    100.00% # Type of FU issued
system.switch_cpus.iq.FU_type_0::InstPrefetch            0      0.00%    100.00% # Type of FU issued
system.switch_cpus.iq.FU_type_0::total       33558248                       # Type of FU issued
system.switch_cpus.iq.fp_alu_accesses               0                       # Number of floating point alu accesses
system.switch_cpus.iq.fp_inst_queue_reads            0                       # Number of floating instruction queue reads
system.switch_cpus.iq.fp_inst_queue_wakeup_accesses            0                       # Number of floating instruction queue wakeup accesses
system.switch_cpus.iq.fp_inst_queue_writes            0                       # Number of floating instruction queue writes
system.switch_cpus.iq.fu_busy_cnt             2291531                       # FU busy when requested
system.switch_cpus.iq.fu_busy_rate           0.068285                       # FU busy rate (busy events/executed inst)
system.switch_cpus.iq.fu_full::No_OpClass            0      0.00%      0.00% # attempts to use FU when none available
system.switch_cpus.iq.fu_full::IntAlu           88696      3.87%      3.87% # attempts to use FU when none available
system.switch_cpus.iq.fu_full::IntMult              0      0.00%      3.87% # attempts to use FU when none available
system.switch_cpus.iq.fu_full::IntDiv               0      0.00%      3.87% # attempts to use FU when none available
system.switch_cpus.iq.fu_full::FloatAdd             0      0.00%      3.87% # attempts to use FU when none available
system.switch_cpus.iq.fu_full::FloatCmp             0      0.00%      3.87% # attempts to use FU when none available
system.switch_cpus.iq.fu_full::FloatCvt             0      0.00%      3.87% # attempts to use FU when none available
system.switch_cpus.iq.fu_full::FloatMult            0      0.00%      3.87% # attempts to use FU when none available
system.switch_cpus.iq.fu_full::FloatMultAcc            0      0.00%      3.87% # attempts to use FU when none available
system.switch_cpus.iq.fu_full::FloatDiv             0      0.00%      3.87% # attempts to use FU when none available
system.switch_cpus.iq.fu_full::FloatMisc            0      0.00%      3.87% # attempts to use FU when none available
system.switch_cpus.iq.fu_full::FloatSqrt            0      0.00%      3.87% # attempts to use FU when none available
system.switch_cpus.iq.fu_full::SimdAdd              0      0.00%      3.87% # attempts to use FU when none available
system.switch_cpus.iq.fu_full::SimdAddAcc            0      0.00%      3.87% # attempts to use FU when none available
system.switch_cpus.iq.fu_full::SimdAlu              0      0.00%      3.87% # attempts to use FU when none available
system.switch_cpus.iq.fu_full::SimdCmp              0      0.00%      3.87% # attempts to use FU when none available
system.switch_cpus.iq.fu_full::SimdCvt              0      0.00%      3.87% # attempts to use FU when none available
system.switch_cpus.iq.fu_full::SimdMisc             0      0.00%      3.87% # attempts to use FU when none available
system.switch_cpus.iq.fu_full::SimdMult             0      0.00%      3.87% # attempts to use FU when none available
system.switch_cpus.iq.fu_full::SimdMultAcc            0      0.00%      3.87% # attempts to use FU when none available
system.switch_cpus.iq.fu_full::SimdShift            0      0.00%      3.87% # attempts to use FU when none available
system.switch_cpus.iq.fu_full::SimdShiftAcc            0      0.00%      3.87% # attempts to use FU when none available
system.switch_cpus.iq.fu_full::SimdDiv              0      0.00%      3.87% # attempts to use FU when none available
system.switch_cpus.iq.fu_full::SimdSqrt             0      0.00%      3.87% # attempts to use FU when none available
system.switch_cpus.iq.fu_full::SimdFloatAdd            0      0.00%      3.87% # attempts to use FU when none available
system.switch_cpus.iq.fu_full::SimdFloatAlu            0      0.00%      3.87% # attempts to use FU when none available
system.switch_cpus.iq.fu_full::SimdFloatCmp            0      0.00%      3.87% # attempts to use FU when none available
system.switch_cpus.iq.fu_full::SimdFloatCvt            0      0.00%      3.87% # attempts to use FU when none available
system.switch_cpus.iq.fu_full::SimdFloatDiv            0      0.00%      3.87% # attempts to use FU when none available
system.switch_cpus.iq.fu_full::SimdFloatMisc            0      0.00%      3.87% # attempts to use FU when none available
system.switch_cpus.iq.fu_full::SimdFloatMult            0      0.00%      3.87% # attempts to use FU when none available
system.switch_cpus.iq.fu_full::SimdFloatMultAcc            0      0.00%      3.87% # attempts to use FU when none available
system.switch_cpus.iq.fu_full::SimdFloatSqrt            0      0.00%      3.87% # attempts to use FU when none available
system.switch_cpus.iq.fu_full::SimdReduceAdd            0      0.00%      3.87% # attempts to use FU when none available
system.switch_cpus.iq.fu_full::SimdReduceAlu            0      0.00%      3.87% # attempts to use FU when none available
system.switch_cpus.iq.fu_full::SimdReduceCmp            0      0.00%      3.87% # attempts to use FU when none available
system.switch_cpus.iq.fu_full::SimdFloatReduceAdd            0      0.00%      3.87% # attempts to use FU when none available
system.switch_cpus.iq.fu_full::SimdFloatReduceCmp            0      0.00%      3.87% # attempts to use FU when none available
system.switch_cpus.iq.fu_full::SimdAes              0      0.00%      3.87% # attempts to use FU when none available
system.switch_cpus.iq.fu_full::SimdAesMix            0      0.00%      3.87% # attempts to use FU when none available
system.switch_cpus.iq.fu_full::SimdSha1Hash            0      0.00%      3.87% # attempts to use FU when none available
system.switch_cpus.iq.fu_full::SimdSha1Hash2            0      0.00%      3.87% # attempts to use FU when none available
system.switch_cpus.iq.fu_full::SimdSha256Hash            0      0.00%      3.87% # attempts to use FU when none available
system.switch_cpus.iq.fu_full::SimdSha256Hash2            0      0.00%      3.87% # attempts to use FU when none available
system.switch_cpus.iq.fu_full::SimdShaSigma2            0      0.00%      3.87% # attempts to use FU when none available
system.switch_cpus.iq.fu_full::SimdShaSigma3            0      0.00%      3.87% # attempts to use FU when none available
system.switch_cpus.iq.fu_full::SimdPredAlu            0      0.00%      3.87% # attempts to use FU when none available
system.switch_cpus.iq.fu_full::MemRead        2184874     95.35%     99.22% # attempts to use FU when none available
system.switch_cpus.iq.fu_full::MemWrite         17961      0.78%    100.00% # attempts to use FU when none available
system.switch_cpus.iq.fu_full::FloatMemRead            0      0.00%    100.00% # attempts to use FU when none available
system.switch_cpus.iq.fu_full::FloatMemWrite            0      0.00%    100.00% # attempts to use FU when none available
system.switch_cpus.iq.fu_full::IprAccess            0      0.00%    100.00% # attempts to use FU when none available
system.switch_cpus.iq.fu_full::InstPrefetch            0      0.00%    100.00% # attempts to use FU when none available
system.switch_cpus.iq.int_alu_accesses       35749807                       # Number of integer alu accesses
system.switch_cpus.iq.int_inst_queue_reads    130012775                       # Number of integer instruction queue reads
system.switch_cpus.iq.int_inst_queue_wakeup_accesses     21293200                       # Number of integer instruction queue wakeup accesses
system.switch_cpus.iq.int_inst_queue_writes     30691266                       # Number of integer instruction queue writes
system.switch_cpus.iq.iqInstsAdded           24127565                       # Number of instructions added to the IQ (excludes non-spec)
system.switch_cpus.iq.iqInstsIssued          33558248                       # Number of instructions issued
system.switch_cpus.iq.iqSquashedInstsExamined      6563219                       # Number of squashed instructions iterated over during squash; mainly for profiling
system.switch_cpus.iq.iqSquashedInstsIssued       130020                       # Number of squashed instructions issued
system.switch_cpus.iq.iqSquashedOperandsExamined      9778896                       # Number of squashed operands that are examined and possibly removed from graph
system.switch_cpus.iq.issued_per_cycle::samples     60474730                       # Number of insts issued each cycle
system.switch_cpus.iq.issued_per_cycle::mean     0.554914                       # Number of insts issued each cycle
system.switch_cpus.iq.issued_per_cycle::stdev     1.397760                       # Number of insts issued each cycle
system.switch_cpus.iq.issued_per_cycle::underflows            0      0.00%      0.00% # Number of insts issued each cycle
system.switch_cpus.iq.issued_per_cycle::0     49128392     81.24%     81.24% # Number of insts issued each cycle
system.switch_cpus.iq.issued_per_cycle::1      3633287      6.01%     87.25% # Number of insts issued each cycle
system.switch_cpus.iq.issued_per_cycle::2      1781697      2.95%     90.19% # Number of insts issued each cycle
system.switch_cpus.iq.issued_per_cycle::3      1367354      2.26%     92.45% # Number of insts issued each cycle
system.switch_cpus.iq.issued_per_cycle::4      2226833      3.68%     96.14% # Number of insts issued each cycle
system.switch_cpus.iq.issued_per_cycle::5      1182620      1.96%     98.09% # Number of insts issued each cycle
system.switch_cpus.iq.issued_per_cycle::6       790441      1.31%     99.40% # Number of insts issued each cycle
system.switch_cpus.iq.issued_per_cycle::7       216421      0.36%     99.76% # Number of insts issued each cycle
system.switch_cpus.iq.issued_per_cycle::8       147685      0.24%    100.00% # Number of insts issued each cycle
system.switch_cpus.iq.issued_per_cycle::overflows            0      0.00%    100.00% # Number of insts issued each cycle
system.switch_cpus.iq.issued_per_cycle::min_value            0                       # Number of insts issued each cycle
system.switch_cpus.iq.issued_per_cycle::max_value            8                       # Number of insts issued each cycle
system.switch_cpus.iq.issued_per_cycle::total     60474730                       # Number of insts issued each cycle
system.switch_cpus.iq.rate                   0.554873                       # Inst issue rate
system.switch_cpus.iq.vec_alu_accesses              0                       # Number of vector alu accesses
system.switch_cpus.iq.vec_inst_queue_reads            0                       # Number of vector instruction queue reads
system.switch_cpus.iq.vec_inst_queue_wakeup_accesses            0                       # Number of vector instruction queue wakeup accesses
system.switch_cpus.iq.vec_inst_queue_writes            0                       # Number of vector instruction queue writes
system.switch_cpus.itb.rdAccesses                   0                       # TLB accesses on read requests
system.switch_cpus.itb.rdMisses                     0                       # TLB misses on read requests
system.switch_cpus.itb.wrAccesses              888961                       # TLB accesses on write requests
system.switch_cpus.itb.wrMisses                    57                       # TLB misses on write requests
system.switch_cpus.memDep0.conflictingLoads       205146                       # Number of conflicting loads.
system.switch_cpus.memDep0.conflictingStores       154952                       # Number of conflicting stores.
system.switch_cpus.memDep0.insertedLoads      5101752                       # Number of loads inserted to the mem dependence unit.
system.switch_cpus.memDep0.insertedStores       572659                       # Number of stores inserted to the mem dependence unit.
system.switch_cpus.misc_regfile_reads        23189720                       # number of misc regfile reads
system.switch_cpus.misc_regfile_writes              1                       # number of misc regfile writes
system.switch_cpus.numCycles                 60479114                       # number of cpu cycles simulated
system.switch_cpus.numWorkItemsCompleted            0                       # number of work items this cpu completed
system.switch_cpus.numWorkItemsStarted              0                       # number of work items this cpu started
system.switch_cpus.rename.BlockCycles        31207945                       # Number of cycles rename is blocking
system.switch_cpus.rename.CommittedMaps      22614523                       # Number of HB maps that are committed
system.switch_cpus.rename.IQFullEvents        7950163                       # Number of times rename has blocked due to IQ full
system.switch_cpus.rename.IdleCycles          1760600                       # Number of cycles rename is idle
system.switch_cpus.rename.LQFullEvents       21528132                       # Number of times rename has blocked due to LQ full
system.switch_cpus.rename.ROBFullEvents        131676                       # Number of times rename has blocked due to ROB full
system.switch_cpus.rename.RenameLookups      67611089                       # Number of register rename lookups that rename has made
system.switch_cpus.rename.RenamedInsts       25563474                       # Number of instructions processed by rename
system.switch_cpus.rename.RenamedOperands     32155233                       # Number of destination operands rename has renamed
system.switch_cpus.rename.RunCycles           2815264                       # Number of cycles rename is running
system.switch_cpus.rename.SQFullEvents          58545                       # Number of times rename has blocked due to SQ full
system.switch_cpus.rename.SquashCycles         174803                       # Number of cycles rename is squashing
system.switch_cpus.rename.UnblockCycles      24514070                       # Number of cycles rename is unblocking
system.switch_cpus.rename.UndoneMaps          9540538                       # Number of HB maps that are undone due to squashing
system.switch_cpus.rename.int_rename_lookups     34528596                       # Number of integer rename lookups
system.switch_cpus.rename.serializeStallCycles         2041                       # count of cycles rename stalled for serializing inst
system.switch_cpus.rename.serializingInsts         1996                       # count of serializing insts renamed
system.switch_cpus.rename.skidInsts           9160304                       # count of insts added to the skid buffer
system.switch_cpus.rename.tempSerializingInsts         1985                       # count of temporary serializing insts renamed
system.switch_cpus.rob.rob_reads             82214229                       # The number of ROB reads
system.switch_cpus.rob.rob_writes            49297262                       # The number of ROB writes
system.switch_cpus.timesIdled                      51                       # Number of times that the entire CPU went into an idle state and unscheduled itself
system.tol2bus.snoop_filter.hit_multi_requests            0                       # Number of requests hitting in the snoop filter with multiple (>1) holders of the requested data.
system.tol2bus.snoop_filter.hit_multi_snoops            0                       # Number of snoops hitting in the snoop filter with multiple (>1) holders of the requested data.
system.tol2bus.snoop_filter.hit_single_requests      1417451                       # Number of requests hitting in the snoop filter with a single holder of the requested data.
system.tol2bus.snoop_filter.hit_single_snoops       366938                       # Number of snoops hitting in the snoop filter with a single holder of the requested data.
system.tol2bus.snoop_filter.tot_requests      2835992                       # Total number of requests made to the snoop filter.
system.tol2bus.snoop_filter.tot_snoops         366938                       # Total number of snoops made to the snoop filter.
system.membus.pwrStateResidencyTicks::UNDEFINED 190180773837000                       # Cumulative time (in ticks) in various power states
system.membus.trans_dist::ReadResp             895443                       # Transaction distribution
system.membus.trans_dist::WritebackDirty        47511                       # Transaction distribution
system.membus.trans_dist::CleanEvict           847504                       # Transaction distribution
system.membus.trans_dist::ReadExReq              3797                       # Transaction distribution
system.membus.trans_dist::ReadExResp             3797                       # Transaction distribution
system.membus.trans_dist::ReadSharedReq        895445                       # Transaction distribution
system.membus.pkt_count_system.l2.mem_side::system.mem_ctrls.port      2693497                       # Packet count per connected master and slave (bytes)
system.membus.pkt_count_system.l2.mem_side::total      2693497                       # Packet count per connected master and slave (bytes)
system.membus.pkt_count::total                2693497                       # Packet count per connected master and slave (bytes)
system.membus.pkt_size_system.l2.mem_side::system.mem_ctrls.port     60592064                       # Cumulative packet size per connected master and slave (bytes)
system.membus.pkt_size_system.l2.mem_side::total     60592064                       # Cumulative packet size per connected master and slave (bytes)
system.membus.pkt_size::total                60592064                       # Cumulative packet size per connected master and slave (bytes)
system.membus.snoops                                0                       # Total snoops (count)
system.membus.snoopTraffic                          0                       # Total snoop traffic (bytes)
system.membus.snoop_fanout::samples            899242                       # Request fanout histogram
system.membus.snoop_fanout::mean                    0                       # Request fanout histogram
system.membus.snoop_fanout::stdev                   0                       # Request fanout histogram
system.membus.snoop_fanout::underflows              0      0.00%      0.00% # Request fanout histogram
system.membus.snoop_fanout::0                  899242    100.00%    100.00% # Request fanout histogram
system.membus.snoop_fanout::1                       0      0.00%    100.00% # Request fanout histogram
system.membus.snoop_fanout::overflows               0      0.00%    100.00% # Request fanout histogram
system.membus.snoop_fanout::min_value               0                       # Request fanout histogram
system.membus.snoop_fanout::max_value               0                       # Request fanout histogram
system.membus.snoop_fanout::total              899242                       # Request fanout histogram
system.membus.reqLayer2.occupancy          2128036500                       # Layer occupancy (ticks)
system.membus.reqLayer2.utilization               7.0                       # Layer utilization (%)
system.membus.respLayer1.occupancy         5042271250                       # Layer occupancy (ticks)
system.membus.respLayer1.utilization             16.7                       # Layer utilization (%)
system.switch_cpus.pwrStateResidencyTicks::OFF  30239568250                       # Cumulative time (in ticks) in various power states
system.switch_cpus.dtb.walker.pwrStateResidencyTicks::UNDEFINED 190180773837000                       # Cumulative time (in ticks) in various power states
system.switch_cpus.itb.walker.pwrStateResidencyTicks::UNDEFINED 190180773837000                       # Cumulative time (in ticks) in various power states
system.tol2bus.pwrStateResidencyTicks::UNDEFINED 190180773837000                       # Cumulative time (in ticks) in various power states
system.tol2bus.trans_dist::ReadResp           1410560                       # Transaction distribution
system.tol2bus.trans_dist::WritebackDirty       156921                       # Transaction distribution
system.tol2bus.trans_dist::CleanEvict         2176082                       # Transaction distribution
system.tol2bus.trans_dist::ReadExReq             7977                       # Transaction distribution
system.tol2bus.trans_dist::ReadExResp            7977                       # Transaction distribution
system.tol2bus.trans_dist::ReadCleanReq            62                       # Transaction distribution
system.tol2bus.trans_dist::ReadSharedReq      1410502                       # Transaction distribution
system.tol2bus.pkt_count_system.cpu.icache.mem_side::system.l2.cpu_side          124                       # Packet count per connected master and slave (bytes)
system.tol2bus.pkt_count_system.cpu.dcache.mem_side::system.l2.cpu_side      4254405                       # Packet count per connected master and slave (bytes)
system.tol2bus.pkt_count::total               4254529                       # Packet count per connected master and slave (bytes)
system.tol2bus.pkt_size_system.cpu.icache.mem_side::system.l2.cpu_side         3968                       # Cumulative packet size per connected master and slave (bytes)
system.tol2bus.pkt_size_system.cpu.dcache.mem_side::system.l2.cpu_side     97784640                       # Cumulative packet size per connected master and slave (bytes)
system.tol2bus.pkt_size::total               97788608                       # Cumulative packet size per connected master and slave (bytes)
system.tol2bus.snoops                          915552                       # Total snoops (count)
system.tol2bus.snoopTraffic                   3040704                       # Total snoop traffic (bytes)
system.tol2bus.snoop_fanout::samples          2334093                       # Request fanout histogram
system.tol2bus.snoop_fanout::mean            0.157208                       # Request fanout histogram
system.tol2bus.snoop_fanout::stdev           0.363997                       # Request fanout histogram
system.tol2bus.snoop_fanout::underflows             0      0.00%      0.00% # Request fanout histogram
system.tol2bus.snoop_fanout::0                1967155     84.28%     84.28% # Request fanout histogram
system.tol2bus.snoop_fanout::1                 366938     15.72%    100.00% # Request fanout histogram
system.tol2bus.snoop_fanout::2                      0      0.00%    100.00% # Request fanout histogram
system.tol2bus.snoop_fanout::3                      0      0.00%    100.00% # Request fanout histogram
system.tol2bus.snoop_fanout::4                      0      0.00%    100.00% # Request fanout histogram
system.tol2bus.snoop_fanout::overflows              0      0.00%    100.00% # Request fanout histogram
system.tol2bus.snoop_fanout::min_value              0                       # Request fanout histogram
system.tol2bus.snoop_fanout::max_value              1                       # Request fanout histogram
system.tol2bus.snoop_fanout::total            2334093                       # Request fanout histogram
system.tol2bus.reqLayer0.occupancy         1527404500                       # Layer occupancy (ticks)
system.tol2bus.reqLayer0.utilization              5.1                       # Layer utilization (%)
system.tol2bus.respLayer1.occupancy        2127709500                       # Layer occupancy (ticks)
system.tol2bus.respLayer1.utilization             7.0                       # Layer utilization (%)
system.tol2bus.respLayer0.occupancy             91500                       # Layer occupancy (ticks)
system.tol2bus.respLayer0.utilization             0.0                       # Layer utilization (%)
system.voltage_domain.voltage                       1                       # Voltage in Volts
system.clk_domain.clock                          1000                       # Clock period in ticks
system.l2.pwrStateResidencyTicks::UNDEFINED 190180773837000                       # Cumulative time (in ticks) in various power states
system.l2.demand_hits::.switch_cpus.data       519298                       # number of demand (read+write) hits
system.l2.demand_hits::total                   519298                       # number of demand (read+write) hits
system.l2.overall_hits::.switch_cpus.data       519298                       # number of overall hits
system.l2.overall_hits::total                  519298                       # number of overall hits
system.l2.demand_misses::.cpu.inst                  1                       # number of demand (read+write) misses
system.l2.demand_misses::.cpu.data                  2                       # number of demand (read+write) misses
system.l2.demand_misses::.switch_cpus.inst           61                       # number of demand (read+write) misses
system.l2.demand_misses::.switch_cpus.data       899179                       # number of demand (read+write) misses
system.l2.demand_misses::total                 899243                       # number of demand (read+write) misses
system.l2.overall_misses::.cpu.inst                 1                       # number of overall misses
system.l2.overall_misses::.cpu.data                 2                       # number of overall misses
system.l2.overall_misses::.switch_cpus.inst           61                       # number of overall misses
system.l2.overall_misses::.switch_cpus.data       899179                       # number of overall misses
system.l2.overall_misses::total                899243                       # number of overall misses
system.l2.demand_miss_latency::.switch_cpus.inst      5079000                       # number of demand (read+write) miss cycles
system.l2.demand_miss_latency::.switch_cpus.data  91277849000                       # number of demand (read+write) miss cycles
system.l2.demand_miss_latency::total      91282928000                       # number of demand (read+write) miss cycles
system.l2.overall_miss_latency::.switch_cpus.inst      5079000                       # number of overall miss cycles
system.l2.overall_miss_latency::.switch_cpus.data  91277849000                       # number of overall miss cycles
system.l2.overall_miss_latency::total     91282928000                       # number of overall miss cycles
system.l2.demand_accesses::.cpu.inst                1                       # number of demand (read+write) accesses
system.l2.demand_accesses::.cpu.data                2                       # number of demand (read+write) accesses
system.l2.demand_accesses::.switch_cpus.inst           61                       # number of demand (read+write) accesses
system.l2.demand_accesses::.switch_cpus.data      1418477                       # number of demand (read+write) accesses
system.l2.demand_accesses::total              1418541                       # number of demand (read+write) accesses
system.l2.overall_accesses::.cpu.inst               1                       # number of overall (read+write) accesses
system.l2.overall_accesses::.cpu.data               2                       # number of overall (read+write) accesses
system.l2.overall_accesses::.switch_cpus.inst           61                       # number of overall (read+write) accesses
system.l2.overall_accesses::.switch_cpus.data      1418477                       # number of overall (read+write) accesses
system.l2.overall_accesses::total             1418541                       # number of overall (read+write) accesses
system.l2.demand_miss_rate::.cpu.inst               1                       # miss rate for demand accesses
system.l2.demand_miss_rate::.cpu.data               1                       # miss rate for demand accesses
system.l2.demand_miss_rate::.switch_cpus.inst            1                       # miss rate for demand accesses
system.l2.demand_miss_rate::.switch_cpus.data     0.633905                       # miss rate for demand accesses
system.l2.demand_miss_rate::total            0.633921                       # miss rate for demand accesses
system.l2.overall_miss_rate::.cpu.inst              1                       # miss rate for overall accesses
system.l2.overall_miss_rate::.cpu.data              1                       # miss rate for overall accesses
system.l2.overall_miss_rate::.switch_cpus.inst            1                       # miss rate for overall accesses
system.l2.overall_miss_rate::.switch_cpus.data     0.633905                       # miss rate for overall accesses
system.l2.overall_miss_rate::total           0.633921                       # miss rate for overall accesses
system.l2.demand_avg_miss_latency::.switch_cpus.inst 83262.295082                       # average overall miss latency
system.l2.demand_avg_miss_latency::.switch_cpus.data 101512.434120                       # average overall miss latency
system.l2.demand_avg_miss_latency::total 101510.857466                       # average overall miss latency
system.l2.overall_avg_miss_latency::.switch_cpus.inst 83262.295082                       # average overall miss latency
system.l2.overall_avg_miss_latency::.switch_cpus.data 101512.434120                       # average overall miss latency
system.l2.overall_avg_miss_latency::total 101510.857466                       # average overall miss latency
system.l2.blocked_cycles::no_mshrs                  0                       # number of cycles access was blocked
system.l2.blocked_cycles::no_targets                0                       # number of cycles access was blocked
system.l2.blocked::no_mshrs                         0                       # number of cycles access was blocked
system.l2.blocked::no_targets                       0                       # number of cycles access was blocked
system.l2.avg_blocked_cycles::no_mshrs            nan                       # average number of cycles each access was blocked
system.l2.avg_blocked_cycles::no_targets          nan                       # average number of cycles each access was blocked
system.l2.writebacks::.writebacks               47511                       # number of writebacks
system.l2.writebacks::total                     47511                       # number of writebacks
system.l2.demand_mshr_misses::.switch_cpus.inst           61                       # number of demand (read+write) MSHR misses
system.l2.demand_mshr_misses::.switch_cpus.data       899179                       # number of demand (read+write) MSHR misses
system.l2.demand_mshr_misses::total            899240                       # number of demand (read+write) MSHR misses
system.l2.overall_mshr_misses::.switch_cpus.inst           61                       # number of overall MSHR misses
system.l2.overall_mshr_misses::.switch_cpus.data       899179                       # number of overall MSHR misses
system.l2.overall_mshr_misses::total           899240                       # number of overall MSHR misses
system.l2.demand_mshr_miss_latency::.switch_cpus.inst      4469000                       # number of demand (read+write) MSHR miss cycles
system.l2.demand_mshr_miss_latency::.switch_cpus.data  82286089000                       # number of demand (read+write) MSHR miss cycles
system.l2.demand_mshr_miss_latency::total  82290558000                       # number of demand (read+write) MSHR miss cycles
system.l2.overall_mshr_miss_latency::.switch_cpus.inst      4469000                       # number of overall MSHR miss cycles
system.l2.overall_mshr_miss_latency::.switch_cpus.data  82286089000                       # number of overall MSHR miss cycles
system.l2.overall_mshr_miss_latency::total  82290558000                       # number of overall MSHR miss cycles
system.l2.demand_mshr_miss_rate::.switch_cpus.inst            1                       # mshr miss rate for demand accesses
system.l2.demand_mshr_miss_rate::.switch_cpus.data     0.633905                       # mshr miss rate for demand accesses
system.l2.demand_mshr_miss_rate::total       0.633919                       # mshr miss rate for demand accesses
system.l2.overall_mshr_miss_rate::.switch_cpus.inst            1                       # mshr miss rate for overall accesses
system.l2.overall_mshr_miss_rate::.switch_cpus.data     0.633905                       # mshr miss rate for overall accesses
system.l2.overall_mshr_miss_rate::total      0.633919                       # mshr miss rate for overall accesses
system.l2.demand_avg_mshr_miss_latency::.switch_cpus.inst 73262.295082                       # average overall mshr miss latency
system.l2.demand_avg_mshr_miss_latency::.switch_cpus.data 91512.467484                       # average overall mshr miss latency
system.l2.demand_avg_mshr_miss_latency::total 91511.229483                       # average overall mshr miss latency
system.l2.overall_avg_mshr_miss_latency::.switch_cpus.inst 73262.295082                       # average overall mshr miss latency
system.l2.overall_avg_mshr_miss_latency::.switch_cpus.data 91512.467484                       # average overall mshr miss latency
system.l2.overall_avg_mshr_miss_latency::total 91511.229483                       # average overall mshr miss latency
system.l2.replacements                         915552                       # number of replacements
system.l2.WritebackDirty_hits::.writebacks       109410                       # number of WritebackDirty hits
system.l2.WritebackDirty_hits::total           109410                       # number of WritebackDirty hits
system.l2.WritebackDirty_accesses::.writebacks       109410                       # number of WritebackDirty accesses(hits+misses)
system.l2.WritebackDirty_accesses::total       109410                       # number of WritebackDirty accesses(hits+misses)
system.l2.CleanEvict_mshr_misses::.writebacks       346402                       # number of CleanEvict MSHR misses
system.l2.CleanEvict_mshr_misses::total        346402                       # number of CleanEvict MSHR misses
system.l2.CleanEvict_mshr_miss_rate::.writebacks          inf                       # mshr miss rate for CleanEvict accesses
system.l2.CleanEvict_mshr_miss_rate::total          inf                       # mshr miss rate for CleanEvict accesses
system.l2.ReadExReq_hits::.switch_cpus.data         4180                       # number of ReadExReq hits
system.l2.ReadExReq_hits::total                  4180                       # number of ReadExReq hits
system.l2.ReadExReq_misses::.switch_cpus.data         3797                       # number of ReadExReq misses
system.l2.ReadExReq_misses::total                3797                       # number of ReadExReq misses
system.l2.ReadExReq_miss_latency::.switch_cpus.data    327317000                       # number of ReadExReq miss cycles
system.l2.ReadExReq_miss_latency::total     327317000                       # number of ReadExReq miss cycles
system.l2.ReadExReq_accesses::.switch_cpus.data         7977                       # number of ReadExReq accesses(hits+misses)
system.l2.ReadExReq_accesses::total              7977                       # number of ReadExReq accesses(hits+misses)
system.l2.ReadExReq_miss_rate::.switch_cpus.data     0.475993                       # miss rate for ReadExReq accesses
system.l2.ReadExReq_miss_rate::total         0.475993                       # miss rate for ReadExReq accesses
system.l2.ReadExReq_avg_miss_latency::.switch_cpus.data 86204.108507                       # average ReadExReq miss latency
system.l2.ReadExReq_avg_miss_latency::total 86204.108507                       # average ReadExReq miss latency
system.l2.ReadExReq_mshr_misses::.switch_cpus.data         3797                       # number of ReadExReq MSHR misses
system.l2.ReadExReq_mshr_misses::total           3797                       # number of ReadExReq MSHR misses
system.l2.ReadExReq_mshr_miss_latency::.switch_cpus.data    289347000                       # number of ReadExReq MSHR miss cycles
system.l2.ReadExReq_mshr_miss_latency::total    289347000                       # number of ReadExReq MSHR miss cycles
system.l2.ReadExReq_mshr_miss_rate::.switch_cpus.data     0.475993                       # mshr miss rate for ReadExReq accesses
system.l2.ReadExReq_mshr_miss_rate::total     0.475993                       # mshr miss rate for ReadExReq accesses
system.l2.ReadExReq_avg_mshr_miss_latency::.switch_cpus.data 76204.108507                       # average ReadExReq mshr miss latency
system.l2.ReadExReq_avg_mshr_miss_latency::total 76204.108507                       # average ReadExReq mshr miss latency
system.l2.ReadCleanReq_misses::.cpu.inst            1                       # number of ReadCleanReq misses
system.l2.ReadCleanReq_misses::.switch_cpus.inst           61                       # number of ReadCleanReq misses
system.l2.ReadCleanReq_misses::total               62                       # number of ReadCleanReq misses
system.l2.ReadCleanReq_miss_latency::.switch_cpus.inst      5079000                       # number of ReadCleanReq miss cycles
system.l2.ReadCleanReq_miss_latency::total      5079000                       # number of ReadCleanReq miss cycles
system.l2.ReadCleanReq_accesses::.cpu.inst            1                       # number of ReadCleanReq accesses(hits+misses)
system.l2.ReadCleanReq_accesses::.switch_cpus.inst           61                       # number of ReadCleanReq accesses(hits+misses)
system.l2.ReadCleanReq_accesses::total             62                       # number of ReadCleanReq accesses(hits+misses)
system.l2.ReadCleanReq_miss_rate::.cpu.inst            1                       # miss rate for ReadCleanReq accesses
system.l2.ReadCleanReq_miss_rate::.switch_cpus.inst            1                       # miss rate for ReadCleanReq accesses
system.l2.ReadCleanReq_miss_rate::total             1                       # miss rate for ReadCleanReq accesses
system.l2.ReadCleanReq_avg_miss_latency::.switch_cpus.inst 83262.295082                       # average ReadCleanReq miss latency
system.l2.ReadCleanReq_avg_miss_latency::total 81919.354839                       # average ReadCleanReq miss latency
system.l2.ReadCleanReq_mshr_misses::.switch_cpus.inst           61                       # number of ReadCleanReq MSHR misses
system.l2.ReadCleanReq_mshr_misses::total           61                       # number of ReadCleanReq MSHR misses
system.l2.ReadCleanReq_mshr_miss_latency::.switch_cpus.inst      4469000                       # number of ReadCleanReq MSHR miss cycles
system.l2.ReadCleanReq_mshr_miss_latency::total      4469000                       # number of ReadCleanReq MSHR miss cycles
system.l2.ReadCleanReq_mshr_miss_rate::.switch_cpus.inst            1                       # mshr miss rate for ReadCleanReq accesses
system.l2.ReadCleanReq_mshr_miss_rate::total     0.983871                       # mshr miss rate for ReadCleanReq accesses
system.l2.ReadCleanReq_avg_mshr_miss_latency::.switch_cpus.inst 73262.295082                       # average ReadCleanReq mshr miss latency
system.l2.ReadCleanReq_avg_mshr_miss_latency::total 73262.295082                       # average ReadCleanReq mshr miss latency
system.l2.ReadSharedReq_hits::.switch_cpus.data       515118                       # number of ReadSharedReq hits
system.l2.ReadSharedReq_hits::total            515118                       # number of ReadSharedReq hits
system.l2.ReadSharedReq_misses::.cpu.data            2                       # number of ReadSharedReq misses
[...]
system.cpu.icache.tags.age_task_id_blocks_1024::4           62                       # Occupied blocks per task id
system.cpu.icache.tags.occ_task_id_percent::1024     0.121094                       # Percentage of cache occupancy per task id
system.cpu.icache.tags.tag_accesses           2732202                       # Number of tag accesses
system.cpu.icache.tags.data_accesses          2732202                       # Number of data accesses
system.cpu.dtb.walker.pwrStateResidencyTicks::UNDEFINED 190273061580000                       # Cumulative time (in ticks) in various power states
system.cpu.interrupts.clk_domain.clock           8000                       # Clock period in ticks
system.cpu.itb_walker_cache.pwrStateResidencyTicks::UNDEFINED 190273061580000                       # Cumulative time (in ticks) in various power states
system.cpu.itb_walker_cache.blocked_cycles::no_mshrs            0                       # number of cycles access was blocked
system.cpu.itb_walker_cache.blocked_cycles::no_targets            0                       # number of cycles access was blocked
system.cpu.itb_walker_cache.blocked::no_mshrs            0                       # number of cycles access was blocked
system.cpu.itb_walker_cache.blocked::no_targets            0                       # number of cycles access was blocked
system.cpu.itb_walker_cache.avg_blocked_cycles::no_mshrs          nan                       # average number of cycles each access was blocked
system.cpu.itb_walker_cache.avg_blocked_cycles::no_targets          nan                       # average number of cycles each access was blocked
system.cpu.itb_walker_cache.replacements            0                       # number of replacements
system.cpu.itb_walker_cache.tags.pwrStateResidencyTicks::UNDEFINED 190273061580000                       # Cumulative time (in ticks) in various power states
system.cpu.itb_walker_cache.tags.tagsinuse            0                       # Cycle average of tags in use
system.cpu.itb_walker_cache.tags.total_refs            0                       # Total number of references to valid blocks.
system.cpu.itb_walker_cache.tags.sampled_refs            0                       # Sample count of references to valid blocks.
system.cpu.itb_walker_cache.tags.avg_refs          nan                       # Average number of references to valid blocks.
system.cpu.itb_walker_cache.tags.warmup_cycle            0                       # Cycle when the warmup percentage was hit.
system.cpu.itb_walker_cache.tags.tag_accesses            0                       # Number of tag accesses
system.cpu.itb_walker_cache.tags.data_accesses            0                       # Number of data accesses
system.cpu.itb.walker.pwrStateResidencyTicks::UNDEFINED 190273061580000                       # Cumulative time (in ticks) in various power states
system.cpu.dtb_walker_cache.pwrStateResidencyTicks::UNDEFINED 190273061580000                       # Cumulative time (in ticks) in various power states
system.cpu.dtb_walker_cache.blocked_cycles::no_mshrs            0                       # number of cycles access was blocked
system.cpu.dtb_walker_cache.blocked_cycles::no_targets            0                       # number of cycles access was blocked
system.cpu.dtb_walker_cache.blocked::no_mshrs            0                       # number of cycles access was blocked
system.cpu.dtb_walker_cache.blocked::no_targets            0                       # number of cycles access was blocked
system.cpu.dtb_walker_cache.avg_blocked_cycles::no_mshrs          nan                       # average number of cycles each access was blocked
system.cpu.dtb_walker_cache.avg_blocked_cycles::no_targets          nan                       # average number of cycles each access was blocked
system.cpu.dtb_walker_cache.replacements            0                       # number of replacements
system.cpu.dtb_walker_cache.tags.pwrStateResidencyTicks::UNDEFINED 190273061580000                       # Cumulative time (in ticks) in various power states
system.cpu.dtb_walker_cache.tags.tagsinuse            0                       # Cycle average of tags in use
system.cpu.dtb_walker_cache.tags.total_refs            0                       # Total number of references to valid blocks.
system.cpu.dtb_walker_cache.tags.sampled_refs            0                       # Sample count of references to valid blocks.
system.cpu.dtb_walker_cache.tags.avg_refs          nan                       # Average number of references to valid blocks.
system.cpu.dtb_walker_cache.tags.warmup_cycle            0                       # Cycle when the warmup percentage was hit.
system.cpu.dtb_walker_cache.tags.tag_accesses            0                       # Number of tag accesses
system.cpu.dtb_walker_cache.tags.data_accesses            0                       # Number of data accesses
system.cpu.dcache.pwrStateResidencyTicks::UNDEFINED 190273061580000                       # Cumulative time (in ticks) in various power states
system.cpu.dcache.demand_hits::.switch_cpus.data      4382482                       # number of demand (read+write) hits
system.cpu.dcache.demand_hits::total          4382482                       # number of demand (read+write) hits
system.cpu.dcache.overall_hits::.switch_cpus.data      4382482                       # number of overall hits
system.cpu.dcache.overall_hits::total         4382482                       # number of overall hits
system.cpu.dcache.demand_misses::.cpu.data            2                       # number of demand (read+write) misses
system.cpu.dcache.demand_misses::.switch_cpus.data     13474640                       # number of demand (read+write) misses
system.cpu.dcache.demand_misses::total       13474642                       # number of demand (read+write) misses
system.cpu.dcache.overall_misses::.cpu.data            2                       # number of overall misses
system.cpu.dcache.overall_misses::.switch_cpus.data     13474640                       # number of overall misses
system.cpu.dcache.overall_misses::total      13474642                       # number of overall misses
system.cpu.dcache.demand_miss_latency::.switch_cpus.data 925965908047                       # number of demand (read+write) miss cycles
system.cpu.dcache.demand_miss_latency::total 925965908047                       # number of demand (read+write) miss cycles
system.cpu.dcache.overall_miss_latency::.switch_cpus.data 925965908047                       # number of overall miss cycles
system.cpu.dcache.overall_miss_latency::total 925965908047                       # number of overall miss cycles
system.cpu.dcache.demand_accesses::.cpu.data            2                       # number of demand (read+write) accesses
system.cpu.dcache.demand_accesses::.switch_cpus.data     17857122                       # number of demand (read+write) accesses
system.cpu.dcache.demand_accesses::total     17857124                       # number of demand (read+write) accesses
system.cpu.dcache.overall_accesses::.cpu.data            2                       # number of overall (read+write) accesses
system.cpu.dcache.overall_accesses::.switch_cpus.data     17857122                       # number of overall (read+write) accesses
system.cpu.dcache.overall_accesses::total     17857124                       # number of overall (read+write) accesses
system.cpu.dcache.demand_miss_rate::.cpu.data            1                       # miss rate for demand accesses
system.cpu.dcache.demand_miss_rate::.switch_cpus.data     0.754581                       # miss rate for demand accesses
system.cpu.dcache.demand_miss_rate::total     0.754581                       # miss rate for demand accesses
system.cpu.dcache.overall_miss_rate::.cpu.data            1                       # miss rate for overall accesses
system.cpu.dcache.overall_miss_rate::.switch_cpus.data     0.754581                       # miss rate for overall accesses
system.cpu.dcache.overall_miss_rate::total     0.754581                       # miss rate for overall accesses
system.cpu.dcache.demand_avg_miss_latency::.switch_cpus.data 68719.157473                       # average overall miss latency
system.cpu.dcache.demand_avg_miss_latency::total 68719.147273                       # average overall miss latency
system.cpu.dcache.overall_avg_miss_latency::.switch_cpus.data 68719.157473                       # average overall miss latency
system.cpu.dcache.overall_avg_miss_latency::total 68719.147273                       # average overall miss latency
system.cpu.dcache.blocked_cycles::no_mshrs    205164374                       # number of cycles access was blocked
system.cpu.dcache.blocked_cycles::no_targets           80                       # number of cycles access was blocked
system.cpu.dcache.blocked::no_mshrs           6212270                       # number of cycles access was blocked
system.cpu.dcache.blocked::no_targets               2                       # number of cycles access was blocked
system.cpu.dcache.avg_blocked_cycles::no_mshrs    33.025669                       # average number of cycles each access was blocked
system.cpu.dcache.avg_blocked_cycles::no_targets           40                       # average number of cycles each access was blocked
system.cpu.dcache.writebacks::.writebacks       204606                       # number of writebacks
system.cpu.dcache.writebacks::total            204606                       # number of writebacks
system.cpu.dcache.demand_mshr_hits::.switch_cpus.data      6901076                       # number of demand (read+write) MSHR hits
system.cpu.dcache.demand_mshr_hits::total      6901076                       # number of demand (read+write) MSHR hits
system.cpu.dcache.overall_mshr_hits::.switch_cpus.data      6901076                       # number of overall MSHR hits
system.cpu.dcache.overall_mshr_hits::total      6901076                       # number of overall MSHR hits
system.cpu.dcache.demand_mshr_misses::.switch_cpus.data      6573564                       # number of demand (read+write) MSHR misses
system.cpu.dcache.demand_mshr_misses::total      6573564                       # number of demand (read+write) MSHR misses
system.cpu.dcache.overall_mshr_misses::.switch_cpus.data      6573564                       # number of overall MSHR misses
system.cpu.dcache.overall_mshr_misses::total      6573564                       # number of overall MSHR misses
system.cpu.dcache.demand_mshr_miss_latency::.switch_cpus.data 451082182633                       # number of demand (read+write) MSHR miss cycles
system.cpu.dcache.demand_mshr_miss_latency::total 451082182633                       # number of demand (read+write) MSHR miss cycles
system.cpu.dcache.overall_mshr_miss_latency::.switch_cpus.data 451082182633                       # number of overall MSHR miss cycles
system.cpu.dcache.overall_mshr_miss_latency::total 451082182633                       # number of overall MSHR miss cycles
system.cpu.dcache.demand_mshr_miss_rate::.switch_cpus.data     0.368120                       # mshr miss rate for demand accesses
system.cpu.dcache.demand_mshr_miss_rate::total     0.368120                       # mshr miss rate for demand accesses
system.cpu.dcache.overall_mshr_miss_rate::.switch_cpus.data     0.368120                       # mshr miss rate for overall accesses
system.cpu.dcache.overall_mshr_miss_rate::total     0.368120                       # mshr miss rate for overall accesses
system.cpu.dcache.demand_avg_mshr_miss_latency::.switch_cpus.data 68620.642110                       # average overall mshr miss latency
system.cpu.dcache.demand_avg_mshr_miss_latency::total 68620.642110                       # average overall mshr miss latency
system.cpu.dcache.overall_avg_mshr_miss_latency::.switch_cpus.data 68620.642110                       # average overall mshr miss latency
system.cpu.dcache.overall_avg_mshr_miss_latency::total 68620.642110                       # average overall mshr miss latency
system.cpu.dcache.replacements                6572538                       # number of replacements
system.cpu.dcache.ReadReq_hits::.switch_cpus.data      3986521                       # number of ReadReq hits
system.cpu.dcache.ReadReq_hits::total         3986521                       # number of ReadReq hits
system.cpu.dcache.ReadReq_misses::.cpu.data            2                       # number of ReadReq misses
system.cpu.dcache.ReadReq_misses::.switch_cpus.data     13463620                       # number of ReadReq misses
system.cpu.dcache.ReadReq_misses::total      13463622                       # number of ReadReq misses
system.cpu.dcache.ReadReq_miss_latency::.switch_cpus.data 925448987000                       # number of ReadReq miss cycles
system.cpu.dcache.ReadReq_miss_latency::total 925448987000                       # number of ReadReq miss cycles
system.cpu.dcache.ReadReq_accesses::.cpu.data            2                       # number of ReadReq accesses(hits+misses)
system.cpu.dcache.ReadReq_accesses::.switch_cpus.data     17450141                       # number of ReadReq accesses(hits+misses)
system.cpu.dcache.ReadReq_accesses::total     17450143                       # number of ReadReq accesses(hits+misses)
system.cpu.dcache.ReadReq_miss_rate::.cpu.data            1                       # miss rate for ReadReq accesses
system.cpu.dcache.ReadReq_miss_rate::.switch_cpus.data     0.771548                       # miss rate for ReadReq accesses
system.cpu.dcache.ReadReq_miss_rate::total     0.771548                       # miss rate for ReadReq accesses
system.cpu.dcache.ReadReq_avg_miss_latency::.switch_cpus.data 68737.010329                       # average ReadReq miss latency
system.cpu.dcache.ReadReq_avg_miss_latency::total 68737.000118                       # average ReadReq miss latency
system.cpu.dcache.ReadReq_mshr_hits::.switch_cpus.data      6900801                       # number of ReadReq MSHR hits
system.cpu.dcache.ReadReq_mshr_hits::total      6900801                       # number of ReadReq MSHR hits
system.cpu.dcache.ReadReq_mshr_misses::.switch_cpus.data      6562819                       # number of ReadReq MSHR misses
system.cpu.dcache.ReadReq_mshr_misses::total      6562819                       # number of ReadReq MSHR misses
system.cpu.dcache.ReadReq_mshr_miss_latency::.switch_cpus.data 450581185500                       # number of ReadReq MSHR miss cycles
system.cpu.dcache.ReadReq_mshr_miss_latency::total 450581185500                       # number of ReadReq MSHR miss cycles
system.cpu.dcache.ReadReq_mshr_miss_rate::.switch_cpus.data     0.376090                       # mshr miss rate for ReadReq accesses
system.cpu.dcache.ReadReq_mshr_miss_rate::total     0.376090                       # mshr miss rate for ReadReq accesses
system.cpu.dcache.ReadReq_avg_mshr_miss_latency::.switch_cpus.data 68656.652804                       # average ReadReq mshr miss latency
system.cpu.dcache.ReadReq_avg_mshr_miss_latency::total 68656.652804                       # average ReadReq mshr miss latency
system.cpu.dcache.WriteReq_hits::.switch_cpus.data       395961                       # number of WriteReq hits
system.cpu.dcache.WriteReq_hits::total         395961                       # number of WriteReq hits
system.cpu.dcache.WriteReq_misses::.switch_cpus.data        11020                       # number of WriteReq misses
system.cpu.dcache.WriteReq_misses::total        11020                       # number of WriteReq misses
system.cpu.dcache.WriteReq_miss_latency::.switch_cpus.data    516921047                       # number of WriteReq miss cycles
system.cpu.dcache.WriteReq_miss_latency::total    516921047                       # number of WriteReq miss cycles
system.cpu.dcache.WriteReq_accesses::.switch_cpus.data       406981                       # number of WriteReq accesses(hits+misses)
system.cpu.dcache.WriteReq_accesses::total       406981                       # number of WriteReq accesses(hits+misses)
system.cpu.dcache.WriteReq_miss_rate::.switch_cpus.data     0.027077                       # miss rate for WriteReq accesses
system.cpu.dcache.WriteReq_miss_rate::total     0.027077                       # miss rate for WriteReq accesses
system.cpu.dcache.WriteReq_avg_miss_latency::.switch_cpus.data 46907.536025                       # average WriteReq miss latency
system.cpu.dcache.WriteReq_avg_miss_latency::total 46907.536025                       # average WriteReq miss latency
system.cpu.dcache.WriteReq_mshr_hits::.switch_cpus.data          275                       # number of WriteReq MSHR hits
system.cpu.dcache.WriteReq_mshr_hits::total          275                       # number of WriteReq MSHR hits
system.cpu.dcache.WriteReq_mshr_misses::.switch_cpus.data        10745                       # number of WriteReq MSHR misses
system.cpu.dcache.WriteReq_mshr_misses::total        10745                       # number of WriteReq MSHR misses
system.cpu.dcache.WriteReq_mshr_miss_latency::.switch_cpus.data    500997133                       # number of WriteReq MSHR miss cycles
system.cpu.dcache.WriteReq_mshr_miss_latency::total    500997133                       # number of WriteReq MSHR miss cycles
system.cpu.dcache.WriteReq_mshr_miss_rate::.switch_cpus.data     0.026402                       # mshr miss rate for WriteReq accesses
system.cpu.dcache.WriteReq_mshr_miss_rate::total     0.026402                       # mshr miss rate for WriteReq accesses
system.cpu.dcache.WriteReq_avg_mshr_miss_latency::.switch_cpus.data 46626.071010                       # average WriteReq mshr miss latency
system.cpu.dcache.WriteReq_avg_mshr_miss_latency::total 46626.071010                       # average WriteReq mshr miss latency
system.cpu.dcache.tags.pwrStateResidencyTicks::UNDEFINED 190273061580000                       # Cumulative time (in ticks) in various power states
system.cpu.dcache.tags.tagsinuse             0.659314                       # Cycle average of tags in use
system.cpu.dcache.tags.total_refs            10956044                       # Total number of references to valid blocks.
system.cpu.dcache.tags.sampled_refs           6573562                       # Sample count of references to valid blocks.
system.cpu.dcache.tags.avg_refs              1.666683                       # Average number of references to valid blocks.
system.cpu.dcache.tags.warmup_cycle      190150534270000                       # Cycle when the warmup percentage was hit.
system.cpu.dcache.tags.occ_blocks::.cpu.data     0.000000                       # Average occupied blocks per requestor
system.cpu.dcache.tags.occ_blocks::.switch_cpus.data     0.659314                       # Average occupied blocks per requestor
system.cpu.dcache.tags.occ_percent::.cpu.data     0.000000                       # Average percentage of cache occupancy
system.cpu.dcache.tags.occ_percent::.switch_cpus.data     0.000644                       # Average percentage of cache occupancy
system.cpu.dcache.tags.occ_percent::total     0.000644                       # Average percentage of cache occupancy
system.cpu.dcache.tags.occ_task_id_blocks::1024         1024                       # Occupied blocks per task id
system.cpu.dcache.tags.age_task_id_blocks_1024::0          492                       # Occupied blocks per task id
system.cpu.dcache.tags.age_task_id_blocks_1024::1          531                       # Occupied blocks per task id
system.cpu.dcache.tags.age_task_id_blocks_1024::2            1                       # Occupied blocks per task id
system.cpu.dcache.tags.occ_task_id_percent::1024            1                       # Percentage of cache occupancy per task id
system.cpu.dcache.tags.tag_accesses          42287810                       # Number of tag accesses
system.cpu.dcache.tags.data_accesses         42287810                       # Number of data accesses

---------- End Simulation Statistics   ----------
