
---------- Begin Simulation Statistics ----------
final_tick                               120508152894500                       # Number of ticks from beginning of simulation (restored from checkpoints and never reset)
host_inst_rate                                  55085                       # Simulator instruction rate (inst/s)
host_mem_usage                                 791500                       # Number of bytes of host memory used
host_op_rate                                    88482                       # Simulator op (including micro ops) rate (op/s)
host_seconds                                   181.54                       # Real time elapsed on the host
host_tick_rate                               14943628                       # Simulator tick rate (ticks/s)
sim_freq                                 1000000000000                       # Frequency of simulated ticks
sim_insts                                    10000012                       # Number of instructions simulated
sim_ops                                      16062752                       # Number of ops (including micro ops) simulated
sim_seconds                                  0.002713                       # Number of seconds simulated
sim_ticks                                  2712818250                       # Number of ticks simulated
system.cpu.committedInsts                          11                       # Number of instructions committed
system.cpu.committedOps                            16                       # Number of ops (including micro ops) committed
system.cpu.dtb.rdAccesses                           6                       # TLB accesses on read requests
system.cpu.dtb.rdMisses                             0                       # TLB misses on read requests
system.cpu.dtb.wrAccesses                           2                       # TLB accesses on write requests
system.cpu.dtb.wrMisses                             0                       # TLB misses on write requests
system.cpu.idle_fraction                            0                       # Percentage of idle cycles
system.cpu.itb.rdAccesses                           0                       # TLB accesses on read requests
system.cpu.itb.rdMisses                             0                       # TLB misses on read requests
system.cpu.itb.wrAccesses                          15                       # TLB accesses on write requests
system.cpu.itb.wrMisses                             0                       # TLB misses on write requests
system.cpu.not_idle_fraction                        1                       # Percentage of non-idle cycles
system.cpu.numCycles                               20                       # number of cpu cycles simulated
system.cpu.numWorkItemsCompleted                    0                       # number of work items this cpu completed
system.cpu.numWorkItemsStarted                      0                       # number of work items this cpu started
system.cpu.num_busy_cycles                         20                       # Number of busy cycles
system.cpu.num_cc_register_reads                   10                       # number of times the CC registers were read
system.cpu.num_cc_register_writes                  10                       # number of times the CC registers were written
system.cpu.num_conditional_control_insts            0                       # number of instructions that are conditional controls
system.cpu.num_fp_alu_accesses                      0                       # Number of float alu accesses
system.cpu.num_fp_insts                             0                       # number of float instructions
system.cpu.num_fp_register_reads                    0                       # number of times the floating registers were read
system.cpu.num_fp_register_writes                   0                       # number of times the floating registers were written
system.cpu.num_func_calls                           0                       # number of times a function call or return occured
system.cpu.num_idle_cycles                          0                       # Number of idle cycles
system.cpu.num_int_alu_accesses                    16                       # Number of integer alu accesses
system.cpu.num_int_insts                           16                       # number of integer instructions
system.cpu.num_int_register_reads                  42                       # number of times the integer registers were read
system.cpu.num_int_register_writes                 14                       # number of times the integer registers were written
system.cpu.num_load_insts                           6                       # Number of load instructions
system.cpu.num_mem_refs                             8                       # number of memory refs
system.cpu.num_store_insts                          2                       # Number of store instructions
system.cpu.num_vec_alu_accesses                     0                       # Number of vector alu accesses
system.cpu.num_vec_insts                            0                       # number of vector instructions
system.cpu.num_vec_register_reads                   0                       # number of times the vector registers were read
system.cpu.num_vec_register_writes                  0                       # number of times the vector registers were written
system.cpu.op_class::No_OpClass                     0      0.00%      0.00% # Class of executed instruction
system.cpu.op_class::IntAlu                         8     50.00%     50.00% # Class of executed instruction
system.cpu.op_class::IntMult                        0      0.00%     50.00% # Class of executed instruction
system.cpu.op_class::IntDiv                         0      0.00%     50.00% # Class of executed instruction
system.cpu.op_class::FloatAdd                       0      0.00%     50.00% # Class of executed instruction
system.cpu.op_class::FloatCmp                       0      0.00%     50.00% # Class of executed instruction
system.cpu.op_class::FloatCvt                       0      0.00%     50.00% # Class of executed instruction
system.cpu.op_class::FloatMult                      0      0.00%     50.00% # Class of executed instruction
system.cpu.op_class::FloatMultAcc                   0      0.00%     50.00% # Class of executed instruction
system.cpu.op_class::FloatDiv                       0      0.00%     50.00% # Class of executed instruction
system.cpu.op_class::FloatMisc                      0      0.00%     50.00% # Class of executed instruction
system.cpu.op_class::FloatSqrt                      0      0.00%     50.00% # Class of executed instruction
system.cpu.op_class::SimdAdd                        0      0.00%     50.00% # Class of executed instruction
system.cpu.op_class::SimdAddAcc                     0      0.00%     50.00% # Class of executed instruction
system.cpu.op_class::SimdAlu                        0      0.00%     50.00% # Class of executed instruction
system.cpu.op_class::SimdCmp                        0      0.00%     50.00% # Class of executed instruction
system.cpu.op_class::SimdCvt                        0      0.00%     50.00% # Class of executed instruction
system.cpu.op_class::SimdMisc                       0      0.00%     50.00% # Class of executed instruction
system.cpu.op_class::SimdMult                       0      0.00%     50.00% # Class of executed instruction
system.cpu.op_class::SimdMultAcc                    0      0.00%     50.00% # Class of executed instruction
system.cpu.op_class::SimdShift                      0      0.00%     50.00% # Class of executed instruction
system.cpu.op_class::SimdShiftAcc                   0      0.00%     50.00% # Class of executed instruction
system.cpu.op_class::SimdDiv                        0      0.00%     50.00% # Class of executed instruction
system.cpu.op_class::SimdSqrt                       0      0.00%     50.00% # Class of executed instruction
system.cpu.op_class::SimdFloatAdd                   0      0.00%     50.00% # Class of executed instruction
system.cpu.op_class::SimdFloatAlu                   0      0.00%     50.00% # Class of executed instruction
system.cpu.op_class::SimdFloatCmp                   0      0.00%     50.00% # Class of executed instruction
system.cpu.op_class::SimdFloatCvt                   0      0.00%     50.00% # Class of executed instruction
system.cpu.op_class::SimdFloatDiv                   0      0.00%     50.00% # Class of executed instruction
system.cpu.op_class::SimdFloatMisc                  0      0.00%     50.00% # Class of executed instruction
system.cpu.op_class::SimdFloatMult                  0      0.00%     50.00% # Class of executed instruction
system.cpu.op_class::SimdFloatMultAcc               0      0.00%     50.00% # Class of executed instruction
system.cpu.op_class::SimdFloatSqrt                  0      0.00%     50.00% # Class of executed instruction
system.cpu.op_class::SimdReduceAdd                  0      0.00%     50.00% # Class of executed instruction
system.cpu.op_class::SimdReduceAlu                  0      0.00%     50.00% # Class of executed instruction
system.cpu.op_class::SimdReduceCmp                  0      0.00%     50.00% # Class of executed instruction
system.cpu.op_class::SimdFloatReduceAdd             0      0.00%     50.00% # Class of executed instruction
system.cpu.op_class::SimdFloatReduceCmp             0      0.00%     50.00% # Class of executed instruction
system.cpu.op_class::SimdAes                        0      0.00%     50.00% # Class of executed instruction
system.cpu.op_class::SimdAesMix                     0      0.00%     50.00% # Class of executed instruction
system.cpu.op_class::SimdSha1Hash                   0      0.00%     50.00% # Class of executed instruction
system.cpu.op_class::SimdSha1Hash2                  0      0.00%     50.00% # Class of executed instruction
system.cpu.op_class::SimdSha256Hash                 0      0.00%     50.00% # Class of executed instruction
system.cpu.op_class::SimdSha256Hash2                0      0.00%     50.00% # Class of executed instruction
system.cpu.op_class::SimdShaSigma2                  0      0.00%     50.00% # Class of executed instruction
system.cpu.op_class::SimdShaSigma3                  0      0.00%     50.00% # Class of executed instruction
system.cpu.op_class::SimdPredAlu                    0      0.00%     50.00% # Class of executed instruction
system.cpu.op_class::MemRead                        6     37.50%     87.50% # Class of executed instruction
system.cpu.op_class::MemWrite                       2     12.50%    100.00% # Class of executed instruction
system.cpu.op_class::FloatMemRead                   0      0.00%    100.00% # Class of executed instruction
system.cpu.op_class::FloatMemWrite                  0      0.00%    100.00% # Class of executed instruction
system.cpu.op_class::IprAccess                      0      0.00%    100.00% # Class of executed instruction
system.cpu.op_class::InstPrefetch                   0      0.00%    100.00% # Class of executed instruction
system.cpu.op_class::total                         16                       # Class of executed instruction
system.cpu.workload.numSyscalls                     0                       # Number of system calls
system.membus.snoop_filter.hit_multi_requests            0                       # Number of requests hitting in the snoop filter with multiple (>1) holders of the requested data.
system.membus.snoop_filter.hit_multi_snoops            0                       # Number of snoops hitting in the snoop filter with multiple (>1) holders of the requested data.
system.membus.snoop_filter.hit_single_requests         2647                       # Number of requests hitting in the snoop filter with a single holder of the requested data.
system.membus.snoop_filter.hit_single_snoops            0                       # Number of snoops hitting in the snoop filter with a single holder of the requested data.
system.membus.snoop_filter.tot_requests          7421                       # Total number of requests made to the snoop filter.
system.membus.snoop_filter.tot_snoops               0                       # Total number of snoops made to the snoop filter.
system.switch_cpus.branchPred.BTBCorrect            0                       # Number of correct BTB predictions (this stat may not work properly.
system.switch_cpus.branchPred.BTBHitPct      0.000000                       # BTB Hit Percentage
system.switch_cpus.branchPred.BTBHits               0                       # Number of BTB hits
system.switch_cpus.branchPred.BTBLookups       633404                       # Number of BTB lookups
system.switch_cpus.branchPred.RASInCorrect            1                       # Number of incorrect RAS predictions.
system.switch_cpus.branchPred.condIncorrect        19757                       # Number of conditional branches incorrect
system.switch_cpus.branchPred.condPredicted       872347                       # Number of conditional branches predicted
system.switch_cpus.branchPred.indirectHits       502374                       # Number of indirect target hits.
system.switch_cpus.branchPred.indirectLookups       633404                       # Number of indirect predictor lookups.
system.switch_cpus.branchPred.indirectMisses       131030                       # Number of indirect misses.
system.switch_cpus.branchPred.lookups          953707                       # Number of BP lookups
system.switch_cpus.branchPred.usedRAS           40002                       # Number of times the RAS was used to get a target.
system.switch_cpus.branchPredindirectMispredicted         2449                       # Number of mispredicted indirect branches.
system.switch_cpus.cc_regfile_reads          14100820                       # number of cc regfile reads
system.switch_cpus.cc_regfile_writes          7124495                       # number of cc regfile writes
system.switch_cpus.commit.amos                      0                       # Number of atomic instructions committed
system.switch_cpus.commit.branchMispredicts        19780                       # The number of times a branch was mispredicted
system.switch_cpus.commit.branches             724275                       # Number of branches committed
system.switch_cpus.commit.bw_lim_events       1283083                       # number cycles where commit BW limit reached
system.switch_cpus.commit.commitSquashedInsts      1237122                       # The number of squashed insts skipped by commit
system.switch_cpus.commit.committedInsts     10000001                       # Number of instructions committed
system.switch_cpus.commit.committedOps       16062736                       # Number of ops (including micro ops) committed
system.switch_cpus.commit.committed_per_cycle::samples      5250733                       # Number of insts commited each cycle
system.switch_cpus.commit.committed_per_cycle::mean     3.059142                       # Number of insts commited each cycle
system.switch_cpus.commit.committed_per_cycle::stdev     3.136032                       # Number of insts commited each cycle
system.switch_cpus.commit.committed_per_cycle::underflows            0      0.00%      0.00% # Number of insts commited each cycle
system.switch_cpus.commit.committed_per_cycle::0       991073     18.87%     18.87% # Number of insts commited each cycle
system.switch_cpus.commit.committed_per_cycle::1      1874185     35.69%     54.57% # Number of insts commited each cycle
system.switch_cpus.commit.committed_per_cycle::2       427395      8.14%     62.71% # Number of insts commited each cycle
system.switch_cpus.commit.committed_per_cycle::3       193908      3.69%     66.40% # Number of insts commited each cycle
system.switch_cpus.commit.committed_per_cycle::4       151950      2.89%     69.30% # Number of insts commited each cycle
system.switch_cpus.commit.committed_per_cycle::5       144743      2.76%     72.05% # Number of insts commited each cycle
system.switch_cpus.commit.committed_per_cycle::6       134914      2.57%     74.62% # Number of insts commited each cycle
system.switch_cpus.commit.committed_per_cycle::7        49482      0.94%     75.56% # Number of insts commited each cycle
system.switch_cpus.commit.committed_per_cycle::8      1283083     24.44%    100.00% # Number of insts commited each cycle
system.switch_cpus.commit.committed_per_cycle::overflows            0      0.00%    100.00% # Number of insts commited each cycle
system.switch_cpus.commit.committed_per_cycle::min_value            0                       # Number of insts commited each cycle
system.switch_cpus.commit.committed_per_cycle::max_value            8                       # Number of insts commited each cycle
system.switch_cpus.commit.committed_per_cycle::total      5250733                       # Number of insts commited each cycle
system.switch_cpus.commit.fp_insts            1436910                       # Number of committed floating point instructions.
system.switch_cpus.commit.function_calls        32801                       # Number of function calls committed.
system.switch_cpus.commit.int_insts          14834461                       # Number of committed integer instructions.
system.switch_cpus.commit.loads               3595534                       # Number of loads committed
system.switch_cpus.commit.membars                   0                       # Number of memory barriers committed
system.switch_cpus.commit.op_class_0::No_OpClass        95086      0.59%      0.59% # Class of committed instruction
system.switch_cpus.commit.op_class_0::IntAlu      9860253     61.39%     61.98% # Class of committed instruction
system.switch_cpus.commit.op_class_0::IntMult        86584      0.54%     62.52% # Class of committed instruction
system.switch_cpus.commit.op_class_0::IntDiv            0      0.00%     62.52% # Class of committed instruction
system.switch_cpus.commit.op_class_0::FloatAdd        32605      0.20%     62.72% # Class of committed instruction
system.switch_cpus.commit.op_class_0::FloatCmp            0      0.00%     62.72% # Class of committed instruction
system.switch_cpus.commit.op_class_0::FloatCvt            0      0.00%     62.72% # Class of committed instruction
system.switch_cpus.commit.op_class_0::FloatMult            0      0.00%     62.72% # Class of committed instruction
system.switch_cpus.commit.op_class_0::FloatMultAcc            0      0.00%     62.72% # Class of committed instruction
system.switch_cpus.commit.op_class_0::FloatDiv            0      0.00%     62.72% # Class of committed instruction
system.switch_cpus.commit.op_class_0::FloatMisc            0      0.00%     62.72% # Class of committed instruction
system.switch_cpus.commit.op_class_0::FloatSqrt            0      0.00%     62.72% # Class of committed instruction
system.switch_cpus.commit.op_class_0::SimdAdd        20986      0.13%     62.85% # Class of committed instruction
system.switch_cpus.commit.op_class_0::SimdAddAcc            0      0.00%     62.85% # Class of committed instruction
system.switch_cpus.commit.op_class_0::SimdAlu       329262      2.05%     64.90% # Class of committed instruction
system.switch_cpus.commit.op_class_0::SimdCmp            0      0.00%     64.90% # Class of committed instruction
system.switch_cpus.commit.op_class_0::SimdCvt       127366      0.79%     65.69% # Class of committed instruction
system.switch_cpus.commit.op_class_0::SimdMisc       161050      1.00%     66.70% # Class of committed instruction
system.switch_cpus.commit.op_class_0::SimdMult            0      0.00%     66.70% # Class of committed instruction
system.switch_cpus.commit.op_class_0::SimdMultAcc            0      0.00%     66.70% # Class of committed instruction
system.switch_cpus.commit.op_class_0::SimdShift        62958      0.39%     67.09% # Class of committed instruction
system.switch_cpus.commit.op_class_0::SimdShiftAcc            0      0.00%     67.09% # Class of committed instruction
system.switch_cpus.commit.op_class_0::SimdDiv            0      0.00%     67.09% # Class of committed instruction
system.switch_cpus.commit.op_class_0::SimdSqrt            0      0.00%     67.09% # Class of committed instruction
system.switch_cpus.commit.op_class_0::SimdFloatAdd       110449      0.69%     67.78% # Class of committed instruction
system.switch_cpus.commit.op_class_0::SimdFloatAlu            0      0.00%     67.78% # Class of committed instruction
system.switch_cpus.commit.op_class_0::SimdFloatCmp           31      0.00%     67.78% # Class of committed instruction
system.switch_cpus.commit.op_class_0::SimdFloatCvt       154150      0.96%     68.74% # Class of committed instruction
system.switch_cpus.commit.op_class_0::SimdFloatDiv        21677      0.13%     68.87% # Class of committed instruction
system.switch_cpus.commit.op_class_0::SimdFloatMisc            0      0.00%     68.87% # Class of committed instruction
system.switch_cpus.commit.op_class_0::SimdFloatMult        11191      0.07%     68.94% # Class of committed instruction
system.switch_cpus.commit.op_class_0::SimdFloatMultAcc            0      0.00%     68.94% # Class of committed instruction
system.switch_cpus.commit.op_class_0::SimdFloatSqrt            0      0.00%     68.94% # Class of committed instruction
system.switch_cpus.commit.op_class_0::SimdReduceAdd            0      0.00%     68.94% # Class of committed instruction
system.switch_cpus.commit.op_class_0::SimdReduceAlu            0      0.00%     68.94% # Class of committed instruction
system.switch_cpus.commit.op_class_0::SimdReduceCmp            0      0.00%     68.94% # Class of committed instruction
system.switch_cpus.commit.op_class_0::SimdFloatReduceAdd            0      0.00%     68.94% # Class of committed instruction
system.switch_cpus.commit.op_class_0::SimdFloatReduceCmp            0      0.00%     68.94% # Class of committed instruction
system.switch_cpus.commit.op_class_0::SimdAes            0      0.00%     68.94% # Class of committed instruction
system.switch_cpus.commit.op_class_0::SimdAesMix            0      0.00%     68.94% # Class of committed instruction
system.switch_cpus.commit.op_class_0::SimdSha1Hash            0      0.00%     68.94% # Class of committed instruction
system.switch_cpus.commit.op_class_0::SimdSha1Hash2            0      0.00%     68.94% # Class of committed instruction
system.switch_cpus.commit.op_class_0::SimdSha256Hash            0      0.00%     68.94% # Class of committed instruction
system.switch_cpus.commit.op_class_0::SimdSha256Hash2            0      0.00%     68.94% # Class of committed instruction
system.switch_cpus.commit.op_class_0::SimdShaSigma2            0      0.00%     68.94% # Class of committed instruction
system.switch_cpus.commit.op_class_0::SimdShaSigma3            0      0.00%     68.94% # Class of committed instruction
system.switch_cpus.commit.op_class_0::SimdPredAlu            0      0.00%     68.94% # Class of committed instruction
system.switch_cpus.commit.op_class_0::MemRead      3367523     20.96%     89.90% # Class of committed instruction
system.switch_cpus.commit.op_class_0::MemWrite      1393220      8.67%     98.58% # Class of committed instruction
system.switch_cpus.commit.op_class_0::FloatMemRead       228011      1.42%    100.00% # Class of committed instruction
system.switch_cpus.commit.op_class_0::FloatMemWrite          334      0.00%    100.00% # Class of committed instruction
system.switch_cpus.commit.op_class_0::IprAccess            0      0.00%    100.00% # Class of committed instruction
system.switch_cpus.commit.op_class_0::InstPrefetch            0      0.00%    100.00% # Class of committed instruction
system.switch_cpus.commit.op_class_0::total     16062736                       # Class of committed instruction
system.switch_cpus.commit.refs                4989088                       # Number of memory references committed
system.switch_cpus.commit.swp_count                 0                       # Number of s/w prefetches committed
system.switch_cpus.commit.vec_insts                 0                       # Number of committed Vector instructions.
system.switch_cpus.committedInsts            10000001                       # Number of Instructions Simulated
system.switch_cpus.committedOps              16062736                       # Number of Ops (including micro ops) Simulated
system.switch_cpus.cpi                       0.542562                       # CPI: Cycles Per Instruction
system.switch_cpus.cpi_total                 0.542562                       # CPI: Total CPI of All Threads
system.switch_cpus.decode.BlockedCycles       2511315                       # Number of cycles decode is blocked
system.switch_cpus.decode.DecodedInsts       17643384                       # Number of instructions handled by decode
system.switch_cpus.decode.IdleCycles           558762                       # Number of cycles decode is idle
system.switch_cpus.decode.RunCycles           1560105                       # Number of cycles decode is running
system.switch_cpus.decode.SquashCycles          20007                       # Number of cycles decode is squashing
system.switch_cpus.decode.UnblockCycles        766013                       # Number of cycles decode is unblocking
system.switch_cpus.dtb.rdAccesses             3684726                       # TLB accesses on read requests
system.switch_cpus.dtb.rdMisses                    57                       # TLB misses on read requests
system.switch_cpus.dtb.wrAccesses             1407702                       # TLB accesses on write requests
system.switch_cpus.dtb.wrMisses                    75                       # TLB misses on write requests
system.switch_cpus.fetch.Branches              953707                       # Number of branches that fetch encountered
system.switch_cpus.fetch.CacheLines            849297                       # Number of cache lines fetched
system.switch_cpus.fetch.Cycles               4532857                       # Number of cycles fetch has run and was not squashing or blocked
system.switch_cpus.fetch.IcacheSquashes          3298                       # Number of outstanding Icache misses that were squashed
system.switch_cpus.fetch.Insts               10961431                       # Number of instructions fetch has processed
system.switch_cpus.fetch.MiscStallCycles           23                       # Number of cycles fetch has spent waiting on interrupts, or bad addresses, or out of MSHRs
system.switch_cpus.fetch.PendingTrapStallCycles          144                       # Number of stall cycles due to pending traps
system.switch_cpus.fetch.SquashCycles           40014                       # Number of cycles fetch has spent squashing
system.switch_cpus.fetch.branchRate          0.175779                       # Number of branch fetches per cycle
system.switch_cpus.fetch.icacheStallCycles       863176                       # Number of cycles fetch is stalled on an Icache miss
system.switch_cpus.fetch.predictedBranches       542376                       # Number of branches that fetch has predicted taken
system.switch_cpus.fetch.rate                2.020311                       # Number of inst fetches per cycle
system.switch_cpus.fetch.rateDist::samples      5416207                       # Number of instructions fetched each cycle (Total)
system.switch_cpus.fetch.rateDist::mean      3.302624                       # Number of instructions fetched each cycle (Total)
system.switch_cpus.fetch.rateDist::stdev     3.547496                       # Number of instructions fetched each cycle (Total)
system.switch_cpus.fetch.rateDist::underflows            0      0.00%      0.00% # Number of instructions fetched each cycle (Total)
system.switch_cpus.fetch.rateDist::0          2602410     48.05%     48.05% # Number of instructions fetched each cycle (Total)
system.switch_cpus.fetch.rateDist::1           137363      2.54%     50.58% # Number of instructions fetched each cycle (Total)
system.switch_cpus.fetch.rateDist::2           106570      1.97%     52.55% # Number of instructions fetched each cycle (Total)
system.switch_cpus.fetch.rateDist::3           147894      2.73%     55.28% # Number of instructions fetched each cycle (Total)
system.switch_cpus.fetch.rateDist::4           181851      3.36%     58.64% # Number of instructions fetched each cycle (Total)
system.switch_cpus.fetch.rateDist::5           341758      6.31%     64.95% # Number of instructions fetched each cycle (Total)
system.switch_cpus.fetch.rateDist::6           169017      3.12%     68.07% # Number of instructions fetched each cycle (Total)
system.switch_cpus.fetch.rateDist::7           191539      3.54%     71.61% # Number of instructions fetched each cycle (Total)
system.switch_cpus.fetch.rateDist::8          1537805     28.39%    100.00% # Number of instructions fetched each cycle (Total)
system.switch_cpus.fetch.rateDist::overflows            0      0.00%    100.00% # Number of instructions fetched each cycle (Total)
system.switch_cpus.fetch.rateDist::min_value            0                       # Number of instructions fetched each cycle (Total)
system.switch_cpus.fetch.rateDist::max_value            8                       # Number of instructions fetched each cycle (Total)
system.switch_cpus.fetch.rateDist::total      5416207                       # Number of instructions fetched each cycle (Total)
system.switch_cpus.fp_regfile_reads           2765898                       # number of floating regfile reads
system.switch_cpus.fp_regfile_writes          1376886                       # number of floating regfile writes
system.switch_cpus.idleCycles                    9409                       # Total number of cycles that the CPU has spent unscheduled due to idling
system.switch_cpus.iew.branchMispredicts        33906                       # Number of branch mispredicts detected at execute
system.switch_cpus.iew.exec_branches           788809                       # Number of branches executed
system.switch_cpus.iew.exec_nop                     0                       # number of nop insts executed
system.switch_cpus.iew.exec_rate             3.095414                       # Inst execution rate
system.switch_cpus.iew.exec_refs              5086781                       # number of memory reference insts executed
system.switch_cpus.iew.exec_stores            1407702                       # Number of stores executed
system.switch_cpus.iew.exec_swp                     0                       # number of swp insts executed
system.switch_cpus.iew.iewBlockCycles          155141                       # Number of cycles IEW is blocking
system.switch_cpus.iew.iewDispLoadInsts       3711378                       # Number of dispatched load instructions
system.switch_cpus.iew.iewDispNonSpecInsts            1                       # Number of dispatched non-speculative instructions
system.switch_cpus.iew.iewDispSquashedInsts          492                       # Number of squashed instructions skipped by dispatch
system.switch_cpus.iew.iewDispStoreInsts      1422623                       # Number of dispatched store instructions
system.switch_cpus.iew.iewDispatchedInsts     17299918                       # Number of instructions dispatched to IQ
system.switch_cpus.iew.iewExecLoadInsts       3679079                       # Number of load instructions executed
system.switch_cpus.iew.iewExecSquashedInsts        31273                       # Number of squashed instructions skipped in execute
system.switch_cpus.iew.iewExecutedInsts      16794526                       # Number of executed instructions
system.switch_cpus.iew.iewIQFullEvents            252                       # Number of times the IQ has become full, causing a stall
system.switch_cpus.iew.iewIdleCycles                0                       # Number of cycles IEW is idle
system.switch_cpus.iew.iewLSQFullEvents         55532                       # Number of times the LSQ has become full, causing a stall
system.switch_cpus.iew.iewSquashCycles          20007                       # Number of cycles IEW is squashing
system.switch_cpus.iew.iewUnblockCycles         55917                       # Number of cycles IEW is unblocking
system.switch_cpus.iew.lsq.thread0.blockedLoads            0                       # Number of blocked loads due to partial load-store forwarding
system.switch_cpus.iew.lsq.thread0.cacheBlocked          192                       # Number of times an access to memory failed due to the cache being blocked
system.switch_cpus.iew.lsq.thread0.forwLoads       382364                       # Number of loads that had data forwarded from stores
system.switch_cpus.iew.lsq.thread0.ignoredResponses           44                       # Number of memory responses ignored because the instruction is squashed
system.switch_cpus.iew.lsq.thread0.invAddrLoads            0                       # Number of loads ignored due to an invalid address
system.switch_cpus.iew.lsq.thread0.invAddrSwpfs            0                       # Number of software prefetches ignored due to an invalid address
system.switch_cpus.iew.lsq.thread0.memOrderViolation          264                       # Number of memory ordering violations
system.switch_cpus.iew.lsq.thread0.rescheduledLoads            0                       # Number of loads that were rescheduled
system.switch_cpus.iew.lsq.thread0.squashedLoads       115824                       # Number of loads squashed
system.switch_cpus.iew.lsq.thread0.squashedStores        29061                       # Number of stores squashed
system.switch_cpus.iew.memOrderViolationEvents          264                       # Number of memory order violations
system.switch_cpus.iew.predictedNotTakenIncorrect        29139                       # Number of branches that were predicted not taken incorrectly
system.switch_cpus.iew.predictedTakenIncorrect         4767                       # Number of branches that were predicted taken incorrectly
system.switch_cpus.iew.wb_consumers          26992565                       # num instructions consuming a value
system.switch_cpus.iew.wb_count              16778000                       # cumulative count of insts written-back
system.switch_cpus.iew.wb_fanout             0.498249                       # average fanout of values written-back
system.switch_cpus.iew.wb_producers          13449031                       # num instructions producing a value
system.switch_cpus.iew.wb_rate               3.092368                       # insts written-back per cycle
system.switch_cpus.iew.wb_sent               16784737                       # cumulative count of insts sent to commit
system.switch_cpus.int_regfile_reads         29018177                       # number of integer regfile reads
system.switch_cpus.int_regfile_writes        13100834                       # number of integer regfile writes
system.switch_cpus.ipc                       1.843109                       # IPC: Instructions Per Cycle
system.switch_cpus.ipc_total                 1.843109                       # IPC: Total IPC of All Threads
system.switch_cpus.iq.FU_type_0::No_OpClass       100167      0.60%      0.60% # Type of FU issued
system.switch_cpus.iq.FU_type_0::IntAlu      10427672     61.97%     62.57% # Type of FU issued
system.switch_cpus.iq.FU_type_0::IntMult        88313      0.52%     63.09% # Type of FU issued
system.switch_cpus.iq.FU_type_0::IntDiv             0      0.00%     63.09% # Type of FU issued
system.switch_cpus.iq.FU_type_0::FloatAdd        35035      0.21%     63.30% # Type of FU issued
system.switch_cpus.iq.FU_type_0::FloatCmp            0      0.00%     63.30% # Type of FU issued
system.switch_cpus.iq.FU_type_0::FloatCvt            0      0.00%     63.30% # Type of FU issued
system.switch_cpus.iq.FU_type_0::FloatMult            0      0.00%     63.30% # Type of FU issued
system.switch_cpus.iq.FU_type_0::FloatMultAcc            0      0.00%     63.30% # Type of FU issued
system.switch_cpus.iq.FU_type_0::FloatDiv            0      0.00%     63.30% # Type of FU issued
system.switch_cpus.iq.FU_type_0::FloatMisc            0      0.00%     63.30% # Type of FU issued
system.switch_cpus.iq.FU_type_0::FloatSqrt            0      0.00%     63.30% # Type of FU issued
system.switch_cpus.iq.FU_type_0::SimdAdd        20986      0.12%     63.43% # Type of FU issued
system.switch_cpus.iq.FU_type_0::SimdAddAcc            0      0.00%     63.43% # Type of FU issued
system.switch_cpus.iq.FU_type_0::SimdAlu       342468      2.04%     65.46% # Type of FU issued
system.switch_cpus.iq.FU_type_0::SimdCmp            0      0.00%     65.46% # Type of FU issued
system.switch_cpus.iq.FU_type_0::SimdCvt       129452      0.77%     66.23% # Type of FU issued
system.switch_cpus.iq.FU_type_0::SimdMisc       162825      0.97%     67.20% # Type of FU issued
system.switch_cpus.iq.FU_type_0::SimdMult            0      0.00%     67.20% # Type of FU issued
system.switch_cpus.iq.FU_type_0::SimdMultAcc            0      0.00%     67.20% # Type of FU issued
system.switch_cpus.iq.FU_type_0::SimdShift        63002      0.37%     67.57% # Type of FU issued
system.switch_cpus.iq.FU_type_0::SimdShiftAcc            0      0.00%     67.57% # Type of FU issued
system.switch_cpus.iq.FU_type_0::SimdDiv            0      0.00%     67.57% # Type of FU issued
system.switch_cpus.iq.FU_type_0::SimdSqrt            0      0.00%     67.57% # Type of FU issued
system.switch_cpus.iq.FU_type_0::SimdFloatAdd       142526      0.85%     68.42% # Type of FU issued
system.switch_cpus.iq.FU_type_0::SimdFloatAlu            0      0.00%     68.42% # Type of FU issued
system.switch_cpus.iq.FU_type_0::SimdFloatCmp           44      0.00%     68.42% # Type of FU issued
system.switch_cpus.iq.FU_type_0::SimdFloatCvt       180320      1.07%     69.49% # Type of FU issued
system.switch_cpus.iq.FU_type_0::SimdFloatDiv        23563      0.14%     69.63% # Type of FU issued
system.switch_cpus.iq.FU_type_0::SimdFloatMisc            0      0.00%     69.63% # Type of FU issued
system.switch_cpus.iq.FU_type_0::SimdFloatMult        13142      0.08%     69.71% # Type of FU issued
system.switch_cpus.iq.FU_type_0::SimdFloatMultAcc            0      0.00%     69.71% # Type of FU issued
system.switch_cpus.iq.FU_type_0::SimdFloatSqrt            0      0.00%     69.71% # Type of FU issued
system.switch_cpus.iq.FU_type_0::SimdReduceAdd            0      0.00%     69.71% # Type of FU issued
system.switch_cpus.iq.FU_type_0::SimdReduceAlu            0      0.00%     69.71% # Type of FU issued
system.switch_cpus.iq.FU_type_0::SimdReduceCmp            0      0.00%     69.71% # Type of FU issued
system.switch_cpus.iq.FU_type_0::SimdFloatReduceAdd            0      0.00%     69.71% # Type of FU issued
system.switch_cpus.iq.FU_type_0::SimdFloatReduceCmp            0      0.00%     69.71% # Type of FU issued
system.switch_cpus.iq.FU_type_0::SimdAes            0      0.00%     69.71% # Type of FU issued
system.switch_cpus.iq.FU_type_0::SimdAesMix            0      0.00%     69.71% # Type of FU issued
system.switch_cpus.iq.FU_type_0::SimdSha1Hash            0      0.00%     69.71% # Type of FU issued
system.switch_cpus.iq.FU_type_0::SimdSha1Hash2            0      0.00%     69.71% # Type of FU issued
system.switch_cpus.iq.FU_type_0::SimdSha256Hash            0      0.00%     69.71% # Type of FU issued
system.switch_cpus.iq.FU_type_0::SimdSha256Hash2            0      0.00%     69.71% # Type of FU issued
system.switch_cpus.iq.FU_type_0::SimdShaSigma2            0      0.00%     69.71% # Type of FU issued
system.switch_cpus.iq.FU_type_0::SimdShaSigma3            0      0.00%     69.71% # Type of FU issued
system.switch_cpus.iq.FU_type_0::SimdPredAlu            0      0.00%     69.71% # Type of FU issued
system.switch_cpus.iq.FU_type_0::MemRead      3403416     20.23%     89.94% # Type of FU issued
system.switch_cpus.iq.FU_type_0::MemWrite      1408733      8.37%     98.31% # Type of FU issued
system.switch_cpus.iq.FU_type_0::FloatMemRead       283655      1.69%    100.00% # Type of FU issued
system.switch_cpus.iq.FU_type_0::FloatMemWrite          482      0.00%    100.00% # Type of FU issued
system.switch_cpus.iq.FU_type_0::IprAccess            0      0.00%    100.00% # Type of FU issued
system.switch_cpus.iq.FU_type_0::InstPrefetch            0      0.00%    100.00% # Type of FU issued
system.switch_cpus.iq.FU_type_0::total       16825801                       # Type of FU issued
system.switch_cpus.iq.fp_alu_accesses         1598498                       # Number of floating point alu accesses
system.switch_cpus.iq.fp_inst_queue_reads      3174929                       # Number of floating instruction queue reads
system.switch_cpus.iq.fp_inst_queue_wakeup_accesses      1558911                       # Number of floating instruction queue wakeup accesses
system.switch_cpus.iq.fp_inst_queue_writes      1911024                       # Number of floating instruction queue writes
system.switch_cpus.iq.fu_busy_cnt              201377                       # FU busy when requested
system.switch_cpus.iq.fu_busy_rate           0.011968                       # FU busy rate (busy events/executed inst)
system.switch_cpus.iq.fu_full::No_OpClass            0      0.00%      0.00% # attempts to use FU when none available
system.switch_cpus.iq.fu_full::IntAlu          121828     60.50%     60.50% # attempts to use FU when none available
system.switch_cpus.iq.fu_full::IntMult              0      0.00%     60.50% # attempts to use FU when none available
system.switch_cpus.iq.fu_full::IntDiv               0      0.00%     60.50% # attempts to use FU when none available
system.switch_cpus.iq.fu_full::FloatAdd             0      0.00%     60.50% # attempts to use FU when none available
system.switch_cpus.iq.fu_full::FloatCmp             0      0.00%     60.50% # attempts to use FU when none available
system.switch_cpus.iq.fu_full::FloatCvt             0      0.00%     60.50% # attempts to use FU when none available
system.switch_cpus.iq.fu_full::FloatMult            0      0.00%     60.50% # attempts to use FU when none available
system.switch_cpus.iq.fu_full::FloatMultAcc            0      0.00%     60.50% # attempts to use FU when none available
system.switch_cpus.iq.fu_full::FloatDiv             0      0.00%     60.50% # attempts to use FU when none available
system.switch_cpus.iq.fu_full::FloatMisc            0      0.00%     60.50% # attempts to use FU when none available
system.switch_cpus.iq.fu_full::FloatSqrt            0      0.00%     60.50% # attempts to use FU when none available
system.switch_cpus.iq.fu_full::SimdAdd              0      0.00%     60.50% # attempts to use FU when none available
system.switch_cpus.iq.fu_full::SimdAddAcc            0      0.00%     60.50% # attempts to use FU when none available
system.switch_cpus.iq.fu_full::SimdAlu             89      0.04%     60.54% # attempts to use FU when none available
system.switch_cpus.iq.fu_full::SimdCmp              0      0.00%     60.54% # attempts to use FU when none available
system.switch_cpus.iq.fu_full::SimdCvt           3455      1.72%     62.26% # attempts to use FU when none available
system.switch_cpus.iq.fu_full::SimdMisc            16      0.01%     62.27% # attempts to use FU when none available
system.switch_cpus.iq.fu_full::SimdMult             0      0.00%     62.27% # attempts to use FU when none available
system.switch_cpus.iq.fu_full::SimdMultAcc            0      0.00%     62.27% # attempts to use FU when none available
system.switch_cpus.iq.fu_full::SimdShift            0      0.00%     62.27% # attempts to use FU when none available
system.switch_cpus.iq.fu_full::SimdShiftAcc            0      0.00%     62.27% # attempts to use FU when none available
system.switch_cpus.iq.fu_full::SimdDiv              0      0.00%     62.27% # attempts to use FU when none available
system.switch_cpus.iq.fu_full::SimdSqrt             0      0.00%     62.27% # attempts to use FU when none available
system.switch_cpus.iq.fu_full::SimdFloatAdd         2324      1.15%     63.42% # attempts to use FU when none available
system.switch_cpus.iq.fu_full::SimdFloatAlu            0      0.00%     63.42% # attempts to use FU when none available
system.switch_cpus.iq.fu_full::SimdFloatCmp            0      0.00%     63.42% # attempts to use FU when none available
system.switch_cpus.iq.fu_full::SimdFloatCvt        10188      5.06%     68.48% # attempts to use FU when none available
system.switch_cpus.iq.fu_full::SimdFloatDiv            0      0.00%     68.48% # attempts to use FU when none available
system.switch_cpus.iq.fu_full::SimdFloatMisc            0      0.00%     68.48% # attempts to use FU when none available
system.switch_cpus.iq.fu_full::SimdFloatMult            0      0.00%     68.48% # attempts to use FU when none available
system.switch_cpus.iq.fu_full::SimdFloatMultAcc            0      0.00%     68.48% # attempts to use FU when none available
system.switch_cpus.iq.fu_full::SimdFloatSqrt            0      0.00%     68.48% # attempts to use FU when none available
system.switch_cpus.iq.fu_full::SimdReduceAdd            0      0.00%     68.48% # attempts to use FU when none available
system.switch_cpus.iq.fu_full::SimdReduceAlu            0      0.00%     68.48% # attempts to use FU when none available
system.switch_cpus.iq.fu_full::SimdReduceCmp            0      0.00%     68.48% # attempts to use FU when none available
system.switch_cpus.iq.fu_full::SimdFloatReduceAdd            0      0.00%     68.48% # attempts to use FU when none available
system.switch_cpus.iq.fu_full::SimdFloatReduceCmp            0      0.00%     68.48% # attempts to use FU when none available
system.switch_cpus.iq.fu_full::SimdAes              0      0.00%     68.48% # attempts to use FU when none available
system.switch_cpus.iq.fu_full::SimdAesMix            0      0.00%     68.48% # attempts to use FU when none available
system.switch_cpus.iq.fu_full::SimdSha1Hash            0      0.00%     68.48% # attempts to use FU when none available
system.switch_cpus.iq.fu_full::SimdSha1Hash2            0      0.00%     68.48% # attempts to use FU when none available
system.switch_cpus.iq.fu_full::SimdSha256Hash            0      0.00%     68.48% # attempts to use FU when none available
system.switch_cpus.iq.fu_full::SimdSha256Hash2            0      0.00%     68.48% # attempts to use FU when none available
system.switch_cpus.iq.fu_full::SimdShaSigma2            0      0.00%     68.48% # attempts to use FU when none available
system.switch_cpus.iq.fu_full::SimdShaSigma3            0      0.00%     68.48% # attempts to use FU when none available
system.switch_cpus.iq.fu_full::SimdPredAlu            0      0.00%     68.48% # attempts to use FU when none available
system.switch_cpus.iq.fu_full::MemRead          56510     28.06%     96.54% # attempts to use FU when none available
system.switch_cpus.iq.fu_full::MemWrite           563      0.28%     96.82% # attempts to use FU when none available
system.switch_cpus.iq.fu_full::FloatMemRead         6404      3.18%    100.00% # attempts to use FU when none available
system.switch_cpus.iq.fu_full::FloatMemWrite            0      0.00%    100.00% # attempts to use FU when none available
system.switch_cpus.iq.fu_full::IprAccess            0      0.00%    100.00% # attempts to use FU when none available
system.switch_cpus.iq.fu_full::InstPrefetch            0      0.00%    100.00% # attempts to use FU when none available
system.switch_cpus.iq.int_alu_accesses       15328513                       # Number of integer alu accesses
system.switch_cpus.iq.int_inst_queue_reads     36174142                       # Number of integer instruction queue reads
system.switch_cpus.iq.int_inst_queue_wakeup_accesses     15219089                       # Number of integer instruction queue wakeup accesses
system.switch_cpus.iq.int_inst_queue_writes     16626269                       # Number of integer instruction queue writes
system.switch_cpus.iq.iqInstsAdded           17299909                       # Number of instructions added to the IQ (excludes non-spec)
system.switch_cpus.iq.iqInstsIssued          16825801                       # Number of instructions issued
system.switch_cpus.iq.iqNonSpecInstsAdded            9                       # Number of non-speculative instructions added to the IQ
system.switch_cpus.iq.iqSquashedInstsExamined      1237114                       # Number of squashed instructions iterated over during squash; mainly for profiling
system.switch_cpus.iq.iqSquashedInstsIssued        79887                       # Number of squashed instructions issued
system.switch_cpus.iq.iqSquashedNonSpecRemoved            9                       # Number of squashed non-spec instructions that were removed
system.switch_cpus.iq.iqSquashedOperandsExamined      1766051                       # Number of squashed operands that are examined and possibly removed from graph
system.switch_cpus.iq.issued_per_cycle::samples      5416207                       # Number of insts issued each cycle
system.switch_cpus.iq.issued_per_cycle::mean     3.106565                       # Number of insts issued each cycle
system.switch_cpus.iq.issued_per_cycle::stdev     2.278185                       # Number of insts issued each cycle
system.switch_cpus.iq.issued_per_cycle::underflows            0      0.00%      0.00% # Number of insts issued each cycle
system.switch_cpus.iq.issued_per_cycle::0       870466     16.07%     16.07% # Number of insts issued each cycle
system.switch_cpus.iq.issued_per_cycle::1       626504     11.57%     27.64% # Number of insts issued each cycle
system.switch_cpus.iq.issued_per_cycle::2       880390     16.25%     43.89% # Number of insts issued each cycle
system.switch_cpus.iq.issued_per_cycle::3       834723     15.41%     59.31% # Number of insts issued each cycle
system.switch_cpus.iq.issued_per_cycle::4       731661     13.51%     72.81% # Number of insts issued each cycle
system.switch_cpus.iq.issued_per_cycle::5       610573     11.27%     84.09% # Number of insts issued each cycle
system.switch_cpus.iq.issued_per_cycle::6       346515      6.40%     90.48% # Number of insts issued each cycle
system.switch_cpus.iq.issued_per_cycle::7       247251      4.57%     95.05% # Number of insts issued each cycle
system.switch_cpus.iq.issued_per_cycle::8       268124      4.95%    100.00% # Number of insts issued each cycle
system.switch_cpus.iq.issued_per_cycle::overflows            0      0.00%    100.00% # Number of insts issued each cycle
system.switch_cpus.iq.issued_per_cycle::min_value            0                       # Number of insts issued each cycle
system.switch_cpus.iq.issued_per_cycle::max_value            8                       # Number of insts issued each cycle
system.switch_cpus.iq.issued_per_cycle::total      5416207                       # Number of insts issued each cycle
system.switch_cpus.iq.rate                   3.101178                       # Inst issue rate
system.switch_cpus.iq.vec_alu_accesses              0                       # Number of vector alu accesses
system.switch_cpus.iq.vec_inst_queue_reads            0                       # Number of vector instruction queue reads
system.switch_cpus.iq.vec_inst_queue_wakeup_accesses            0                       # Number of vector instruction queue wakeup accesses
system.switch_cpus.iq.vec_inst_queue_writes            0                       # Number of vector instruction queue writes
system.switch_cpus.itb.rdAccesses                   0                       # TLB accesses on read requests
system.switch_cpus.itb.rdMisses                     0                       # TLB misses on read requests
system.switch_cpus.itb.wrAccesses              849321                       # TLB accesses on write requests
system.switch_cpus.itb.wrMisses                    39                       # TLB misses on write requests
system.switch_cpus.memDep0.conflictingLoads       401319                       # Number of conflicting loads.
system.switch_cpus.memDep0.conflictingStores       306528                       # Number of conflicting stores.
system.switch_cpus.memDep0.insertedLoads      3711378                       # Number of loads inserted to the mem dependence unit.
system.switch_cpus.memDep0.insertedStores      1422623                       # Number of stores inserted to the mem dependence unit.
system.switch_cpus.misc_regfile_reads         6736619                       # number of misc regfile reads
system.switch_cpus.misc_regfile_writes              1                       # number of misc regfile writes
system.switch_cpus.numCycles                  5425616                       # number of cpu cycles simulated
system.switch_cpus.numWorkItemsCompleted            0                       # number of work items this cpu completed
system.switch_cpus.numWorkItemsStarted              0                       # number of work items this cpu started
system.switch_cpus.rename.BlockCycles          274939                       # Number of cycles rename is blocking
system.switch_cpus.rename.CommittedMaps      20752203                       # Number of HB maps that are committed
system.switch_cpus.rename.IQFullEvents         147748                       # Number of times rename has blocked due to IQ full
system.switch_cpus.rename.IdleCycles           862578                       # Number of cycles rename is idle
system.switch_cpus.rename.LQFullEvents         567363                       # Number of times rename has blocked due to LQ full
system.switch_cpus.rename.ROBFullEvents          2819                       # Number of times rename has blocked due to ROB full
system.switch_cpus.rename.RenameLookups      54965850                       # Number of register rename lookups that rename has made
system.switch_cpus.rename.RenamedInsts       17529367                       # Number of instructions processed by rename
system.switch_cpus.rename.RenamedOperands     22501609                       # Number of destination operands rename has renamed
system.switch_cpus.rename.RunCycles           2010777                       # Number of cycles rename is running
system.switch_cpus.rename.SQFullEvents        1294990                       # Number of times rename has blocked due to SQ full
system.switch_cpus.rename.SquashCycles          20007                       # Number of cycles rename is squashing
system.switch_cpus.rename.UnblockCycles       2247901                       # Number of cycles rename is unblocking
system.switch_cpus.rename.UndoneMaps          1749288                       # Number of HB maps that are undone due to squashing
system.switch_cpus.rename.fp_rename_lookups      3036406                       # Number of floating rename lookups
system.switch_cpus.rename.int_rename_lookups     30016266                       # Number of integer rename lookups
system.switch_cpus.rename.serializeStallCycles            0                       # count of cycles rename stalled for serializing inst
system.switch_cpus.rename.serializingInsts            0                       # count of serializing insts renamed
system.switch_cpus.rename.skidInsts           4030633                       # count of insts added to the skid buffer
system.switch_cpus.rename.tempSerializingInsts            0                       # count of temporary serializing insts renamed
system.switch_cpus.rob.rob_reads             21267508                       # The number of ROB reads
system.switch_cpus.rob.rob_writes            34765863                       # The number of ROB writes
system.switch_cpus.timesIdled                     166                       # Number of times that the entire CPU went into an idle state and unscheduled itself
system.tol2bus.snoop_filter.hit_multi_requests            0                       # Number of requests hitting in the snoop filter with multiple (>1) holders of the requested data.
system.tol2bus.snoop_filter.hit_multi_snoops            0                       # Number of snoops hitting in the snoop filter with multiple (>1) holders of the requested data.
system.tol2bus.snoop_filter.hit_single_requests        24458                       # Number of requests hitting in the snoop filter with a single holder of the requested data.
system.tol2bus.snoop_filter.hit_single_snoops         2783                       # Number of snoops hitting in the snoop filter with a single holder of the requested data.
system.tol2bus.snoop_filter.tot_requests        50060                       # Total number of requests made to the snoop filter.
system.tol2bus.snoop_filter.tot_snoops           2783                       # Total number of snoops made to the snoop filter.
system.membus.pwrStateResidencyTicks::UNDEFINED 120508152894500                       # Cumulative time (in ticks) in various power states
system.membus.trans_dist::ReadResp               1610                       # Transaction distribution
system.membus.trans_dist::WritebackDirty         1700                       # Transaction distribution
system.membus.trans_dist::CleanEvict              947                       # Transaction distribution
system.membus.trans_dist::ReadExReq              3164                       # Transaction distribution
system.membus.trans_dist::ReadExResp             3164                       # Transaction distribution
system.membus.trans_dist::ReadSharedReq          1610                       # Transaction distribution
system.membus.pkt_count_system.l2.mem_side::system.mem_ctrls.port        12195                       # Packet count per connected master and slave (bytes)
system.membus.pkt_count_system.l2.mem_side::total        12195                       # Packet count per connected master and slave (bytes)
system.membus.pkt_count::total                  12195                       # Packet count per connected master and slave (bytes)
system.membus.pkt_size_system.l2.mem_side::system.mem_ctrls.port       414336                       # Cumulative packet size per connected master and slave (bytes)
system.membus.pkt_size_system.l2.mem_side::total       414336                       # Cumulative packet size per connected master and slave (bytes)
system.membus.pkt_size::total                  414336                       # Cumulative packet size per connected master and slave (bytes)
system.membus.snoops                                0                       # Total snoops (count)
system.membus.snoopTraffic                          0                       # Total snoop traffic (bytes)
system.membus.snoop_fanout::samples              4774                       # Request fanout histogram
system.membus.snoop_fanout::mean                    0                       # Request fanout histogram
system.membus.snoop_fanout::stdev                   0                       # Request fanout histogram
system.membus.snoop_fanout::underflows              0      0.00%      0.00% # Request fanout histogram
system.membus.snoop_fanout::0                    4774    100.00%    100.00% # Request fanout histogram
system.membus.snoop_fanout::1                       0      0.00%    100.00% # Request fanout histogram
system.membus.snoop_fanout::overflows               0      0.00%    100.00% # Request fanout histogram
system.membus.snoop_fanout::min_value               0                       # Request fanout histogram
system.membus.snoop_fanout::max_value               0                       # Request fanout histogram
system.membus.snoop_fanout::total                4774                       # Request fanout histogram
system.membus.reqLayer2.occupancy            15616000                       # Layer occupancy (ticks)
system.membus.reqLayer2.utilization               0.6                       # Layer utilization (%)
system.membus.respLayer1.occupancy           25322250                       # Layer occupancy (ticks)
system.membus.respLayer1.utilization              0.9                       # Layer utilization (%)
system.switch_cpus.pwrStateResidencyTicks::OFF   2712818250                       # Cumulative time (in ticks) in various power states
system.switch_cpus.dtb.walker.pwrStateResidencyTicks::UNDEFINED 120508152894500                       # Cumulative time (in ticks) in various power states
system.switch_cpus.itb.walker.pwrStateResidencyTicks::UNDEFINED 120508152894500                       # Cumulative time (in ticks) in various power states
system.tol2bus.pwrStateResidencyTicks::UNDEFINED 120508152894500                       # Cumulative time (in ticks) in various power states
system.tol2bus.trans_dist::ReadResp              6414                       # Transaction distribution
system.tol2bus.trans_dist::WritebackDirty        20622                       # Transaction distribution
system.tol2bus.trans_dist::WritebackClean          247                       # Transaction distribution
system.tol2bus.trans_dist::CleanEvict            8173                       # Transaction distribution
system.tol2bus.trans_dist::ReadExReq            19188                       # Transaction distribution
system.tol2bus.trans_dist::ReadExResp           19188                       # Transaction distribution
system.tol2bus.trans_dist::ReadCleanReq           367                       # Transaction distribution
system.tol2bus.trans_dist::ReadSharedReq         6047                       # Transaction distribution
system.tol2bus.pkt_count_system.cpu.icache.mem_side::system.l2.cpu_side          981                       # Packet count per connected master and slave (bytes)
system.tol2bus.pkt_count_system.cpu.dcache.mem_side::system.l2.cpu_side        74681                       # Packet count per connected master and slave (bytes)
system.tol2bus.pkt_count::total                 75662                       # Packet count per connected master and slave (bytes)
system.tol2bus.pkt_size_system.cpu.icache.mem_side::system.l2.cpu_side        39296                       # Cumulative packet size per connected master and slave (bytes)
system.tol2bus.pkt_size_system.cpu.dcache.mem_side::system.l2.cpu_side      2826048                       # Cumulative packet size per connected master and slave (bytes)
system.tol2bus.pkt_size::total                2865344                       # Cumulative packet size per connected master and slave (bytes)
system.tol2bus.snoops                            4584                       # Total snoops (count)
system.tol2bus.snoopTraffic                    108800                       # Total snoop traffic (bytes)
system.tol2bus.snoop_fanout::samples            30186                       # Request fanout histogram
system.tol2bus.snoop_fanout::mean            0.092195                       # Request fanout histogram
system.tol2bus.snoop_fanout::stdev           0.289306                       # Request fanout histogram
system.tol2bus.snoop_fanout::underflows             0      0.00%      0.00% # Request fanout histogram
system.tol2bus.snoop_fanout::0                  27403     90.78%     90.78% # Request fanout histogram
system.tol2bus.snoop_fanout::1                   2783      9.22%    100.00% # Request fanout histogram
system.tol2bus.snoop_fanout::2                      0      0.00%    100.00% # Request fanout histogram
system.tol2bus.snoop_fanout::3                      0      0.00%    100.00% # Request fanout histogram
system.tol2bus.snoop_fanout::4                      0      0.00%    100.00% # Request fanout histogram
system.tol2bus.snoop_fanout::overflows              0      0.00%    100.00% # Request fanout histogram
system.tol2bus.snoop_fanout::min_value              0                       # Request fanout histogram
system.tol2bus.snoop_fanout::max_value              1                       # Request fanout histogram
system.tol2bus.snoop_fanout::total              30186                       # Request fanout histogram
system.tol2bus.reqLayer0.occupancy           44195000                       # Layer occupancy (ticks)
system.tol2bus.reqLayer0.utilization              1.6                       # Layer utilization (%)
system.tol2bus.respLayer1.occupancy          37843500                       # Layer occupancy (ticks)
system.tol2bus.respLayer1.utilization             1.4                       # Layer utilization (%)
system.tol2bus.respLayer0.occupancy            547999                       # Layer occupancy (ticks)
system.tol2bus.respLayer0.utilization             0.0                       # Layer utilization (%)
system.voltage_domain.voltage                       1                       # Voltage in Volts
system.clk_domain.clock                          1000                       # Clock period in ticks
system.l2.pwrStateResidencyTicks::UNDEFINED 120508152894500                       # Cumulative time (in ticks) in various power states
system.l2.demand_hits::.switch_cpus.inst          236                       # number of demand (read+write) hits
system.l2.demand_hits::.switch_cpus.data        20592                       # number of demand (read+write) hits
system.l2.demand_hits::total                    20828                       # number of demand (read+write) hits
system.l2.overall_hits::.switch_cpus.inst          236                       # number of overall hits
system.l2.overall_hits::.switch_cpus.data        20592                       # number of overall hits
system.l2.overall_hits::total                   20828                       # number of overall hits
system.l2.demand_misses::.cpu.inst                  2                       # number of demand (read+write) misses
system.l2.demand_misses::.cpu.data                  6                       # number of demand (read+write) misses
system.l2.demand_misses::.switch_cpus.inst          129                       # number of demand (read+write) misses
system.l2.demand_misses::.switch_cpus.data         4637                       # number of demand (read+write) misses
system.l2.demand_misses::total                   4774                       # number of demand (read+write) misses
system.l2.overall_misses::.cpu.inst                 2                       # number of overall misses
system.l2.overall_misses::.cpu.data                 6                       # number of overall misses
system.l2.overall_misses::.switch_cpus.inst          129                       # number of overall misses
system.l2.overall_misses::.switch_cpus.data         4637                       # number of overall misses
system.l2.overall_misses::total                  4774                       # number of overall misses
system.l2.demand_miss_latency::.switch_cpus.inst     10487500                       # number of demand (read+write) miss cycles
system.l2.demand_miss_latency::.switch_cpus.data    357974500                       # number of demand (read+write) miss cycles
system.l2.demand_miss_latency::total        368462000                       # number of demand (read+write) miss cycles
system.l2.overall_miss_latency::.switch_cpus.inst     10487500                       # number of overall miss cycles
system.l2.overall_miss_latency::.switch_cpus.data    357974500                       # number of overall miss cycles
system.l2.overall_miss_latency::total       368462000                       # number of overall miss cycles
system.l2.demand_accesses::.cpu.inst                2                       # number of demand (read+write) accesses
system.l2.demand_accesses::.cpu.data                6                       # number of demand (read+write) accesses
system.l2.demand_accesses::.switch_cpus.inst          365                       # number of demand (read+write) accesses
system.l2.demand_accesses::.switch_cpus.data        25229                       # number of demand (read+write) accesses
system.l2.demand_accesses::total                25602                       # number of demand (read+write) accesses
system.l2.overall_accesses::.cpu.inst               2                       # number of overall (read+write) accesses
system.l2.overall_accesses::.cpu.data               6                       # number of overall (read+write) accesses
system.l2.overall_accesses::.switch_cpus.inst          365                       # number of overall (read+write) accesses
system.l2.overall_accesses::.switch_cpus.data        25229                       # number of overall (read+write) accesses
system.l2.overall_accesses::total               25602                       # number of overall (read+write) accesses
system.l2.demand_miss_rate::.cpu.inst               1                       # miss rate for demand accesses
system.l2.demand_miss_rate::.cpu.data               1                       # miss rate for demand accesses
system.l2.demand_miss_rate::.switch_cpus.inst     0.353425                       # miss rate for demand accesses
system.l2.demand_miss_rate::.switch_cpus.data     0.183796                       # miss rate for demand accesses
system.l2.demand_miss_rate::total            0.186470                       # miss rate for demand accesses
system.l2.overall_miss_rate::.cpu.inst              1                       # miss rate for overall accesses
system.l2.overall_miss_rate::.cpu.data              1                       # miss rate for overall accesses
system.l2.overall_miss_rate::.switch_cpus.inst     0.353425                       # miss rate for overall accesses
system.l2.overall_miss_rate::.switch_cpus.data     0.183796                       # miss rate for overall accesses
system.l2.overall_miss_rate::total           0.186470                       # miss rate for overall accesses
system.l2.demand_avg_miss_latency::.switch_cpus.inst 81298.449612                       # average overall miss latency
system.l2.demand_avg_miss_latency::.switch_cpus.data 77199.590252                       # average overall miss latency
system.l2.demand_avg_miss_latency::total 77180.980310                       # average overall miss latency
system.l2.overall_avg_miss_latency::.switch_cpus.inst 81298.449612                       # average overall miss latency
system.l2.overall_avg_miss_latency::.switch_cpus.data 77199.590252                       # average overall miss latency
system.l2.overall_avg_miss_latency::total 77180.980310                       # average overall miss latency
system.l2.blocked_cycles::no_mshrs                  0                       # number of cycles access was blocked
system.l2.blocked_cycles::no_targets                0                       # number of cycles access was blocked
system.l2.blocked::no_mshrs                         0                       # number of cycles access was blocked
system.l2.blocked::no_targets                       0                       # number of cycles access was blocked
system.l2.avg_blocked_cycles::no_mshrs            nan                       # average number of cycles each access was blocked
system.l2.avg_blocked_cycles::no_targets          nan                       # average number of cycles each access was blocked
system.l2.writebacks::.writebacks                1700                       # number of writebacks
system.l2.writebacks::total                      1700                       # number of writebacks
system.l2.demand_mshr_misses::.switch_cpus.inst          129                       # number of demand (read+write) MSHR misses
system.l2.demand_mshr_misses::.switch_cpus.data         4637                       # number of demand (read+write) MSHR misses
system.l2.demand_mshr_misses::total              4766                       # number of demand (read+write) MSHR misses
system.l2.overall_mshr_misses::.switch_cpus.inst          129                       # number of overall MSHR misses
system.l2.overall_mshr_misses::.switch_cpus.data         4637                       # number of overall MSHR misses
system.l2.overall_mshr_misses::total             4766                       # number of overall MSHR misses
system.l2.demand_mshr_miss_latency::.switch_cpus.inst      9197500                       # number of demand (read+write) MSHR miss cycles
system.l2.demand_mshr_miss_latency::.switch_cpus.data    311604500                       # number of demand (read+write) MSHR miss cycles
system.l2.demand_mshr_miss_latency::total    320802000                       # number of demand (read+write) MSHR miss cycles
system.l2.overall_mshr_miss_latency::.switch_cpus.inst      9197500                       # number of overall MSHR miss cycles
system.l2.overall_mshr_miss_latency::.switch_cpus.data    311604500                       # number of overall MSHR miss cycles
system.l2.overall_mshr_miss_latency::total    320802000                       # number of overall MSHR miss cycles
system.l2.demand_mshr_miss_rate::.switch_cpus.inst     0.353425                       # mshr miss rate for demand accesses
system.l2.demand_mshr_miss_rate::.switch_cpus.data     0.183796                       # mshr miss rate for demand accesses
system.l2.demand_mshr_miss_rate::total       0.186157                       # mshr miss rate for demand accesses
system.l2.overall_mshr_miss_rate::.switch_cpus.inst     0.353425                       # mshr miss rate for overall accesses
system.l2.overall_mshr_miss_rate::.switch_cpus.data     0.183796                       # mshr miss rate for overall accesses
system.l2.overall_mshr_miss_rate::total      0.186157                       # mshr miss rate for overall accesses
system.l2.demand_avg_mshr_miss_latency::.switch_cpus.inst 71298.449612                       # average overall mshr miss latency
system.l2.demand_avg_mshr_miss_latency::.switch_cpus.data 67199.590252                       # average overall mshr miss latency
system.l2.demand_avg_mshr_miss_latency::total 67310.532942                       # average overall mshr miss latency
system.l2.overall_avg_mshr_miss_latency::.switch_cpus.inst 71298.449612                       # average overall mshr miss latency
system.l2.overall_avg_mshr_miss_latency::.switch_cpus.data 67199.590252                       # average overall mshr miss latency
system.l2.overall_avg_mshr_miss_latency::total 67310.532942                       # average overall mshr miss latency
system.l2.replacements                           4584                       # number of replacements
system.l2.WritebackDirty_hits::.writebacks        18922                       # number of WritebackDirty hits
system.l2.WritebackDirty_hits::total            18922                       # number of WritebackDirty hits
system.l2.WritebackDirty_accesses::.writebacks        18922                       # number of WritebackDirty accesses(hits+misses)
system.l2.WritebackDirty_accesses::total        18922                       # number of WritebackDirty accesses(hits+misses)
system.l2.WritebackClean_hits::.writebacks          247                       # number of WritebackClean hits
system.l2.WritebackClean_hits::total              247                       # number of WritebackClean hits
system.l2.WritebackClean_accesses::.writebacks          247                       # number of WritebackClean accesses(hits+misses)
system.l2.WritebackClean_accesses::total          247                       # number of WritebackClean accesses(hits+misses)
system.l2.CleanEvict_mshr_misses::.writebacks          846                       # number of CleanEvict MSHR misses
system.l2.CleanEvict_mshr_misses::total           846                       # number of CleanEvict MSHR misses
system.l2.CleanEvict_mshr_miss_rate::.writebacks          inf                       # mshr miss rate for CleanEvict accesses
system.l2.CleanEvict_mshr_miss_rate::total          inf                       # mshr miss rate for CleanEvict accesses
system.l2.ReadExReq_hits::.switch_cpus.data        16024                       # number of ReadExReq hits
system.l2.ReadExReq_hits::total                 16024                       # number of ReadExReq hits
system.l2.ReadExReq_misses::.cpu.data               1                       # number of ReadExReq misses
system.l2.ReadExReq_misses::.switch_cpus.data         3163                       # number of ReadExReq misses
system.l2.ReadExReq_misses::total                3164                       # number of ReadExReq misses
system.l2.ReadExReq_miss_latency::.switch_cpus.data    235208500                       # number of ReadExReq miss cycles
system.l2.ReadExReq_miss_latency::total     235208500                       # number of ReadExReq miss cycles
system.l2.ReadExReq_accesses::.cpu.data             1                       # number of ReadExReq accesses(hits+misses)
system.l2.ReadExReq_accesses::.switch_cpus.data        19187                       # number of ReadExReq accesses(hits+misses)
system.l2.ReadExReq_accesses::total             19188                       # number of ReadExReq accesses(hits+misses)
system.l2.ReadExReq_miss_rate::.cpu.data            1                       # miss rate for ReadExReq accesses
system.l2.ReadExReq_miss_rate::.switch_cpus.data     0.164851                       # miss rate for ReadExReq accesses
system.l2.ReadExReq_miss_rate::total         0.164895                       # miss rate for ReadExReq accesses
system.l2.ReadExReq_avg_miss_latency::.switch_cpus.data 74362.472336                       # average ReadExReq miss latency
system.l2.ReadExReq_avg_miss_latency::total 74338.969659                       # average ReadExReq miss latency
system.l2.ReadExReq_mshr_misses::.switch_cpus.data         3163                       # number of ReadExReq MSHR misses
system.l2.ReadExReq_mshr_misses::total           3163                       # number of ReadExReq MSHR misses
system.l2.ReadExReq_mshr_miss_latency::.switch_cpus.data    203578500                       # number of ReadExReq MSHR miss cycles
system.l2.ReadExReq_mshr_miss_latency::total    203578500                       # number of ReadExReq MSHR miss cycles
system.l2.ReadExReq_mshr_miss_rate::.switch_cpus.data     0.164851                       # mshr miss rate for ReadExReq accesses
system.l2.ReadExReq_mshr_miss_rate::total     0.164843                       # mshr miss rate for ReadExReq accesses
system.l2.ReadExReq_avg_mshr_miss_latency::.switch_cpus.data 64362.472336                       # average ReadExReq mshr miss latency
system.l2.ReadExReq_avg_mshr_miss_latency::total 64362.472336                       # average ReadExReq mshr miss latency
system.l2.ReadCleanReq_hits::.switch_cpus.inst          236                       # number of ReadCleanReq hits
system.l2.ReadCleanReq_hits::total                236                       # number of ReadCleanReq hits
system.l2.ReadCleanReq_misses::.cpu.inst            2                       # number of ReadCleanReq misses
system.l2.ReadCleanReq_misses::.switch_cpus.inst          129                       # number of ReadCleanReq misses
system.l2.ReadCleanReq_misses::total              131                       # number of ReadCleanReq misses
system.l2.ReadCleanReq_miss_latency::.switch_cpus.inst     10487500                       # number of ReadCleanReq miss cycles
system.l2.ReadCleanReq_miss_latency::total     10487500                       # number of ReadCleanReq miss cycles
system.l2.ReadCleanReq_accesses::.cpu.inst            2                       # number of ReadCleanReq accesses(hits+misses)
system.l2.ReadCleanReq_accesses::.switch_cpus.inst          365                       # number of ReadCleanReq accesses(hits+misses)
system.l2.ReadCleanReq_accesses::total            367                       # number of ReadCleanReq accesses(hits+misses)
system.l2.ReadCleanReq_miss_rate::.cpu.inst            1                       # miss rate for ReadCleanReq accesses
system.l2.ReadCleanReq_miss_rate::.switch_cpus.inst     0.353425                       # miss rate for ReadCleanReq accesses
[...]
system.cpu.itb_walker_cache.blocked_cycles::no_mshrs            0                       # number of cycles access was blocked
system.cpu.itb_walker_cache.blocked_cycles::no_targets            0                       # number of cycles access was blocked
system.cpu.itb_walker_cache.blocked::no_mshrs            0                       # number of cycles access was blocked
system.cpu.itb_walker_cache.blocked::no_targets            0                       # number of cycles access was blocked
system.cpu.itb_walker_cache.avg_blocked_cycles::no_mshrs          nan                       # average number of cycles each access was blocked
system.cpu.itb_walker_cache.avg_blocked_cycles::no_targets          nan                       # average number of cycles each access was blocked
system.cpu.itb_walker_cache.replacements            0                       # number of replacements
system.cpu.itb_walker_cache.tags.pwrStateResidencyTicks::UNDEFINED 120516030984000                       # Cumulative time (in ticks) in various power states
system.cpu.itb_walker_cache.tags.tagsinuse            0                       # Cycle average of tags in use
system.cpu.itb_walker_cache.tags.total_refs            0                       # Total number of references to valid blocks.
system.cpu.itb_walker_cache.tags.sampled_refs            0                       # Sample count of references to valid blocks.
system.cpu.itb_walker_cache.tags.avg_refs          nan                       # Average number of references to valid blocks.
system.cpu.itb_walker_cache.tags.warmup_cycle            0                       # Cycle when the warmup percentage was hit.
system.cpu.itb_walker_cache.tags.tag_accesses            0                       # Number of tag accesses
system.cpu.itb_walker_cache.tags.data_accesses            0                       # Number of data accesses
system.cpu.itb.walker.pwrStateResidencyTicks::UNDEFINED 120516030984000                       # Cumulative time (in ticks) in various power states
system.cpu.dtb_walker_cache.pwrStateResidencyTicks::UNDEFINED 120516030984000                       # Cumulative time (in ticks) in various power states
system.cpu.dtb_walker_cache.blocked_cycles::no_mshrs            0                       # number of cycles access was blocked
system.cpu.dtb_walker_cache.blocked_cycles::no_targets            0                       # number of cycles access was blocked
system.cpu.dtb_walker_cache.blocked::no_mshrs            0                       # number of cycles access was blocked
system.cpu.dtb_walker_cache.blocked::no_targets            0                       # number of cycles access was blocked
system.cpu.dtb_walker_cache.avg_blocked_cycles::no_mshrs          nan                       # average number of cycles each access was blocked
system.cpu.dtb_walker_cache.avg_blocked_cycles::no_targets          nan                       # average number of cycles each access was blocked
system.cpu.dtb_walker_cache.replacements            0                       # number of replacements
system.cpu.dtb_walker_cache.tags.pwrStateResidencyTicks::UNDEFINED 120516030984000                       # Cumulative time (in ticks) in various power states
system.cpu.dtb_walker_cache.tags.tagsinuse            0                       # Cycle average of tags in use
system.cpu.dtb_walker_cache.tags.total_refs            0                       # Total number of references to valid blocks.
system.cpu.dtb_walker_cache.tags.sampled_refs            0                       # Sample count of references to valid blocks.
system.cpu.dtb_walker_cache.tags.avg_refs          nan                       # Average number of references to valid blocks.
system.cpu.dtb_walker_cache.tags.warmup_cycle            0                       # Cycle when the warmup percentage was hit.
system.cpu.dtb_walker_cache.tags.tag_accesses            0                       # Number of tag accesses
system.cpu.dtb_walker_cache.tags.data_accesses            0                       # Number of data accesses
system.cpu.dcache.pwrStateResidencyTicks::UNDEFINED 120516030984000                       # Cumulative time (in ticks) in various power states
system.cpu.dcache.demand_hits::.cpu.data            2                       # number of demand (read+write) hits
system.cpu.dcache.demand_hits::.switch_cpus.data     18680639                       # number of demand (read+write) hits
system.cpu.dcache.demand_hits::total         18680641                       # number of demand (read+write) hits
system.cpu.dcache.overall_hits::.cpu.data            2                       # number of overall hits
system.cpu.dcache.overall_hits::.switch_cpus.data     18680639                       # number of overall hits
system.cpu.dcache.overall_hits::total        18680641                       # number of overall hits
system.cpu.dcache.demand_misses::.cpu.data            6                       # number of demand (read+write) misses
system.cpu.dcache.demand_misses::.switch_cpus.data       109160                       # number of demand (read+write) misses
system.cpu.dcache.demand_misses::total         109166                       # number of demand (read+write) misses
system.cpu.dcache.overall_misses::.cpu.data            6                       # number of overall misses
system.cpu.dcache.overall_misses::.switch_cpus.data       109160                       # number of overall misses
system.cpu.dcache.overall_misses::total        109166                       # number of overall misses
system.cpu.dcache.demand_miss_latency::.switch_cpus.data   2461439487                       # number of demand (read+write) miss cycles
system.cpu.dcache.demand_miss_latency::total   2461439487                       # number of demand (read+write) miss cycles
system.cpu.dcache.overall_miss_latency::.switch_cpus.data   2461439487                       # number of overall miss cycles
system.cpu.dcache.overall_miss_latency::total   2461439487                       # number of overall miss cycles
system.cpu.dcache.demand_accesses::.cpu.data            8                       # number of demand (read+write) accesses
system.cpu.dcache.demand_accesses::.switch_cpus.data     18789799                       # number of demand (read+write) accesses
system.cpu.dcache.demand_accesses::total     18789807                       # number of demand (read+write) accesses
system.cpu.dcache.overall_accesses::.cpu.data            8                       # number of overall (read+write) accesses
system.cpu.dcache.overall_accesses::.switch_cpus.data     18789799                       # number of overall (read+write) accesses
system.cpu.dcache.overall_accesses::total     18789807                       # number of overall (read+write) accesses
system.cpu.dcache.demand_miss_rate::.cpu.data     0.750000                       # miss rate for demand accesses
system.cpu.dcache.demand_miss_rate::.switch_cpus.data     0.005810                       # miss rate for demand accesses
system.cpu.dcache.demand_miss_rate::total     0.005810                       # miss rate for demand accesses
system.cpu.dcache.overall_miss_rate::.cpu.data     0.750000                       # miss rate for overall accesses
system.cpu.dcache.overall_miss_rate::.switch_cpus.data     0.005810                       # miss rate for overall accesses
system.cpu.dcache.overall_miss_rate::total     0.005810                       # miss rate for overall accesses
system.cpu.dcache.demand_avg_miss_latency::.switch_cpus.data 22548.914318                       # average overall miss latency
system.cpu.dcache.demand_avg_miss_latency::total 22547.674981                       # average overall miss latency
system.cpu.dcache.overall_avg_miss_latency::.switch_cpus.data 22548.914318                       # average overall miss latency
system.cpu.dcache.overall_avg_miss_latency::total 22547.674981                       # average overall miss latency
system.cpu.dcache.blocked_cycles::no_mshrs        17527                       # number of cycles access was blocked
system.cpu.dcache.blocked_cycles::no_targets            0                       # number of cycles access was blocked
system.cpu.dcache.blocked::no_mshrs               961                       # number of cycles access was blocked
system.cpu.dcache.blocked::no_targets               0                       # number of cycles access was blocked
system.cpu.dcache.avg_blocked_cycles::no_mshrs    18.238293                       # average number of cycles each access was blocked
system.cpu.dcache.avg_blocked_cycles::no_targets          nan                       # average number of cycles each access was blocked
system.cpu.dcache.writebacks::.writebacks        81547                       # number of writebacks
system.cpu.dcache.writebacks::total             81547                       # number of writebacks
system.cpu.dcache.demand_mshr_hits::.switch_cpus.data         4248                       # number of demand (read+write) MSHR hits
system.cpu.dcache.demand_mshr_hits::total         4248                       # number of demand (read+write) MSHR hits
system.cpu.dcache.overall_mshr_hits::.switch_cpus.data         4248                       # number of overall MSHR hits
system.cpu.dcache.overall_mshr_hits::total         4248                       # number of overall MSHR hits
system.cpu.dcache.demand_mshr_misses::.switch_cpus.data       104912                       # number of demand (read+write) MSHR misses
system.cpu.dcache.demand_mshr_misses::total       104912                       # number of demand (read+write) MSHR misses
system.cpu.dcache.overall_mshr_misses::.switch_cpus.data       104912                       # number of overall MSHR misses
system.cpu.dcache.overall_mshr_misses::total       104912                       # number of overall MSHR misses
system.cpu.dcache.demand_mshr_miss_latency::.switch_cpus.data   2211202987                       # number of demand (read+write) MSHR miss cycles
system.cpu.dcache.demand_mshr_miss_latency::total   2211202987                       # number of demand (read+write) MSHR miss cycles
system.cpu.dcache.overall_mshr_miss_latency::.switch_cpus.data   2211202987                       # number of overall MSHR miss cycles
system.cpu.dcache.overall_mshr_miss_latency::total   2211202987                       # number of overall MSHR miss cycles
system.cpu.dcache.demand_mshr_miss_rate::.switch_cpus.data     0.005583                       # mshr miss rate for demand accesses
system.cpu.dcache.demand_mshr_miss_rate::total     0.005583                       # mshr miss rate for demand accesses
system.cpu.dcache.overall_mshr_miss_rate::.switch_cpus.data     0.005583                       # mshr miss rate for overall accesses
system.cpu.dcache.overall_mshr_miss_rate::total     0.005583                       # mshr miss rate for overall accesses
system.cpu.dcache.demand_avg_mshr_miss_latency::.switch_cpus.data 21076.740382                       # average overall mshr miss latency
system.cpu.dcache.demand_avg_mshr_miss_latency::total 21076.740382                       # average overall mshr miss latency
system.cpu.dcache.overall_avg_mshr_miss_latency::.switch_cpus.data 21076.740382                       # average overall mshr miss latency
system.cpu.dcache.overall_avg_mshr_miss_latency::total 21076.740382                       # average overall mshr miss latency
system.cpu.dcache.replacements                 103894                       # number of replacements
system.cpu.dcache.ReadReq_hits::.cpu.data            1                       # number of ReadReq hits
system.cpu.dcache.ReadReq_hits::.switch_cpus.data     13166066                       # number of ReadReq hits
system.cpu.dcache.ReadReq_hits::total        13166067                       # number of ReadReq hits
system.cpu.dcache.ReadReq_misses::.cpu.data            5                       # number of ReadReq misses
system.cpu.dcache.ReadReq_misses::.switch_cpus.data        28829                       # number of ReadReq misses
system.cpu.dcache.ReadReq_misses::total         28834                       # number of ReadReq misses
system.cpu.dcache.ReadReq_miss_latency::.switch_cpus.data    785347000                       # number of ReadReq miss cycles
system.cpu.dcache.ReadReq_miss_latency::total    785347000                       # number of ReadReq miss cycles
system.cpu.dcache.ReadReq_accesses::.cpu.data            6                       # number of ReadReq accesses(hits+misses)
system.cpu.dcache.ReadReq_accesses::.switch_cpus.data     13194895                       # number of ReadReq accesses(hits+misses)
system.cpu.dcache.ReadReq_accesses::total     13194901                       # number of ReadReq accesses(hits+misses)
system.cpu.dcache.ReadReq_miss_rate::.cpu.data     0.833333                       # miss rate for ReadReq accesses
system.cpu.dcache.ReadReq_miss_rate::.switch_cpus.data     0.002185                       # miss rate for ReadReq accesses
system.cpu.dcache.ReadReq_miss_rate::total     0.002185                       # miss rate for ReadReq accesses
system.cpu.dcache.ReadReq_avg_miss_latency::.switch_cpus.data 27241.562316                       # average ReadReq miss latency
system.cpu.dcache.ReadReq_avg_miss_latency::total 27236.838455                       # average ReadReq miss latency
system.cpu.dcache.ReadReq_mshr_hits::.switch_cpus.data         4248                       # number of ReadReq MSHR hits
system.cpu.dcache.ReadReq_mshr_hits::total         4248                       # number of ReadReq MSHR hits
system.cpu.dcache.ReadReq_mshr_misses::.switch_cpus.data        24581                       # number of ReadReq MSHR misses
system.cpu.dcache.ReadReq_mshr_misses::total        24581                       # number of ReadReq MSHR misses
system.cpu.dcache.ReadReq_mshr_miss_latency::.switch_cpus.data    615441500                       # number of ReadReq MSHR miss cycles
system.cpu.dcache.ReadReq_mshr_miss_latency::total    615441500                       # number of ReadReq MSHR miss cycles
system.cpu.dcache.ReadReq_mshr_miss_rate::.switch_cpus.data     0.001863                       # mshr miss rate for ReadReq accesses
system.cpu.dcache.ReadReq_mshr_miss_rate::total     0.001863                       # mshr miss rate for ReadReq accesses
system.cpu.dcache.ReadReq_avg_mshr_miss_latency::.switch_cpus.data 25037.284895                       # average ReadReq mshr miss latency
system.cpu.dcache.ReadReq_avg_mshr_miss_latency::total 25037.284895                       # average ReadReq mshr miss latency
system.cpu.dcache.WriteReq_hits::.cpu.data            1                       # number of WriteReq hits
system.cpu.dcache.WriteReq_hits::.switch_cpus.data      5514573                       # number of WriteReq hits
system.cpu.dcache.WriteReq_hits::total        5514574                       # number of WriteReq hits
system.cpu.dcache.WriteReq_misses::.cpu.data            1                       # number of WriteReq misses
system.cpu.dcache.WriteReq_misses::.switch_cpus.data        80331                       # number of WriteReq misses
system.cpu.dcache.WriteReq_misses::total        80332                       # number of WriteReq misses
system.cpu.dcache.WriteReq_miss_latency::.switch_cpus.data   1676092487                       # number of WriteReq miss cycles
system.cpu.dcache.WriteReq_miss_latency::total   1676092487                       # number of WriteReq miss cycles
system.cpu.dcache.WriteReq_accesses::.cpu.data            2                       # number of WriteReq accesses(hits+misses)
system.cpu.dcache.WriteReq_accesses::.switch_cpus.data      5594904                       # number of WriteReq accesses(hits+misses)
system.cpu.dcache.WriteReq_accesses::total      5594906                       # number of WriteReq accesses(hits+misses)
system.cpu.dcache.WriteReq_miss_rate::.cpu.data     0.500000                       # miss rate for WriteReq accesses
system.cpu.dcache.WriteReq_miss_rate::.switch_cpus.data     0.014358                       # miss rate for WriteReq accesses
system.cpu.dcache.WriteReq_miss_rate::total     0.014358                       # miss rate for WriteReq accesses
system.cpu.dcache.WriteReq_avg_miss_latency::.switch_cpus.data 20864.827862                       # average WriteReq miss latency
system.cpu.dcache.WriteReq_avg_miss_latency::total 20864.568130                       # average WriteReq miss latency
system.cpu.dcache.WriteReq_mshr_misses::.switch_cpus.data        80331                       # number of WriteReq MSHR misses
system.cpu.dcache.WriteReq_mshr_misses::total        80331                       # number of WriteReq MSHR misses
system.cpu.dcache.WriteReq_mshr_miss_latency::.switch_cpus.data   1595761487                       # number of WriteReq MSHR miss cycles
system.cpu.dcache.WriteReq_mshr_miss_latency::total   1595761487                       # number of WriteReq MSHR miss cycles
system.cpu.dcache.WriteReq_mshr_miss_rate::.switch_cpus.data     0.014358                       # mshr miss rate for WriteReq accesses
system.cpu.dcache.WriteReq_mshr_miss_rate::total     0.014358                       # mshr miss rate for WriteReq accesses
system.cpu.dcache.WriteReq_avg_mshr_miss_latency::.switch_cpus.data 19864.827862                       # average WriteReq mshr miss latency
system.cpu.dcache.WriteReq_avg_mshr_miss_latency::total 19864.827862                       # average WriteReq mshr miss latency
system.cpu.dcache.tags.pwrStateResidencyTicks::UNDEFINED 120516030984000                       # Cumulative time (in ticks) in various power states
system.cpu.dcache.tags.tagsinuse             0.089373                       # Cycle average of tags in use
system.cpu.dcache.tags.total_refs            18785559                       # Total number of references to valid blocks.
system.cpu.dcache.tags.sampled_refs            104918                       # Sample count of references to valid blocks.
system.cpu.dcache.tags.avg_refs            179.049915                       # Average number of references to valid blocks.
system.cpu.dcache.tags.warmup_cycle      120505440077000                       # Cycle when the warmup percentage was hit.
system.cpu.dcache.tags.occ_blocks::.cpu.data     0.000287                       # Average occupied blocks per requestor
system.cpu.dcache.tags.occ_blocks::.switch_cpus.data     0.089087                       # Average occupied blocks per requestor
system.cpu.dcache.tags.occ_percent::.cpu.data     0.000000                       # Average percentage of cache occupancy
system.cpu.dcache.tags.occ_percent::.switch_cpus.data     0.000087                       # Average percentage of cache occupancy
system.cpu.dcache.tags.occ_percent::total     0.000087                       # Average percentage of cache occupancy
system.cpu.dcache.tags.occ_task_id_blocks::1024         1024                       # Occupied blocks per task id
system.cpu.dcache.tags.age_task_id_blocks_1024::0            8                       # Occupied blocks per task id
system.cpu.dcache.tags.age_task_id_blocks_1024::1          865                       # Occupied blocks per task id
system.cpu.dcache.tags.age_task_id_blocks_1024::2          115                       # Occupied blocks per task id
system.cpu.dcache.tags.age_task_id_blocks_1024::3           18                       # Occupied blocks per task id
system.cpu.dcache.tags.age_task_id_blocks_1024::4           18                       # Occupied blocks per task id
system.cpu.dcache.tags.occ_task_id_percent::1024            1                       # Percentage of cache occupancy per task id
system.cpu.dcache.tags.tag_accesses          37684532                       # Number of tag accesses
system.cpu.dcache.tags.data_accesses         37684532                       # Number of data accesses

---------- End Simulation Statistics   ----------
