
---------- Begin Simulation Statistics ----------
final_tick                               1774454923000                       # Number of ticks from beginning of simulation (restored from checkpoints and never reset)
host_inst_rate                                  22669                       # Simulator instruction rate (inst/s)
host_mem_usage                                 887576                       # Number of bytes of host memory used
host_op_rate                                    42728                       # Simulator op (including micro ops) rate (op/s)
host_seconds                                   441.14                       # Real time elapsed on the host
host_tick_rate                               49489954                       # Simulator tick rate (ticks/s)
sim_freq                                 1000000000000                       # Frequency of simulated ticks
sim_insts                                    10000010                       # Number of instructions simulated
sim_ops                                      18849211                       # Number of ops (including micro ops) simulated
sim_seconds                                  0.021832                       # Number of seconds simulated
sim_ticks                                 21832064250                       # Number of ticks simulated
system.cpu.committedInsts                           8                       # Number of instructions committed
system.cpu.committedOps                            15                       # Number of ops (including micro ops) committed
system.cpu.dtb.rdAccesses                           3                       # TLB accesses on read requests
system.cpu.dtb.rdMisses                             0                       # TLB misses on read requests
system.cpu.dtb.wrAccesses                           0                       # TLB accesses on write requests
system.cpu.dtb.wrMisses                             0                       # TLB misses on write requests
system.cpu.idle_fraction                            0                       # Percentage of idle cycles
system.cpu.itb.rdAccesses                           0                       # TLB accesses on read requests
system.cpu.itb.rdMisses                             0                       # TLB misses on read requests
system.cpu.itb.wrAccesses                          12                       # TLB accesses on write requests
system.cpu.itb.wrMisses                             0                       # TLB misses on write requests
system.cpu.not_idle_fraction                        1                       # Percentage of non-idle cycles
system.cpu.numCycles                               19                       # number of cpu cycles simulated
system.cpu.numWorkItemsCompleted                    0                       # number of work items this cpu completed
system.cpu.numWorkItemsStarted                      0                       # number of work items this cpu started
system.cpu.num_busy_cycles                         19                       # Number of busy cycles
system.cpu.num_conditional_control_insts            0                       # number of instructions that are conditional controls
system.cpu.num_fp_alu_accesses                     11                       # Number of float alu accesses
system.cpu.num_fp_insts                            11                       # number of float instructions
system.cpu.num_fp_register_reads                   19                       # number of times the floating registers were read
system.cpu.num_fp_register_writes                  11                       # number of times the floating registers were written
system.cpu.num_func_calls                           0                       # number of times a function call or return occured
system.cpu.num_idle_cycles                          0                       # Number of idle cycles
system.cpu.num_int_alu_accesses                     7                       # Number of integer alu accesses
system.cpu.num_int_insts                            7                       # number of integer instructions
system.cpu.num_int_register_reads                  15                       # number of times the integer registers were read
system.cpu.num_int_register_writes                  4                       # number of times the integer registers were written
system.cpu.num_load_insts                           3                       # Number of load instructions
system.cpu.num_mem_refs                             3                       # number of memory refs
system.cpu.num_store_insts                          0                       # Number of store instructions
system.cpu.num_vec_alu_accesses                     0                       # Number of vector alu accesses
system.cpu.num_vec_insts                            0                       # number of vector instructions
system.cpu.num_vec_register_reads                   0                       # number of times the vector registers were read
system.cpu.num_vec_register_writes                  0                       # number of times the vector registers were written
system.cpu.op_class::No_OpClass                     0      0.00%      0.00% # Class of executed instruction
system.cpu.op_class::IntAlu                         6     40.00%     40.00% # Class of executed instruction
system.cpu.op_class::IntMult                        0      0.00%     40.00% # Class of executed instruction
system.cpu.op_class::IntDiv                         0      0.00%     40.00% # Class of executed instruction
system.cpu.op_class::FloatAdd                       1      6.67%     46.67% # Class of executed instruction
system.cpu.op_class::FloatCmp                       0      0.00%     46.67% # Class of executed instruction
system.cpu.op_class::FloatCvt                       0      0.00%     46.67% # Class of executed instruction
system.cpu.op_class::FloatMult                      0      0.00%     46.67% # Class of executed instruction
system.cpu.op_class::FloatMultAcc                   0      0.00%     46.67% # Class of executed instruction
system.cpu.op_class::FloatDiv                       0      0.00%     46.67% # Class of executed instruction
system.cpu.op_class::FloatMisc                      0      0.00%     46.67% # Class of executed instruction
system.cpu.op_class::FloatSqrt                      0      0.00%     46.67% # Class of executed instruction
system.cpu.op_class::SimdAdd                        0      0.00%     46.67% # Class of executed instruction
system.cpu.op_class::SimdAddAcc                     0      0.00%     46.67% # Class of executed instruction
system.cpu.op_class::SimdAlu                        0      0.00%     46.67% # Class of executed instruction
system.cpu.op_class::SimdCmp                        0      0.00%     46.67% # Class of executed instruction
system.cpu.op_class::SimdCvt                        0      0.00%     46.67% # Class of executed instruction
system.cpu.op_class::SimdMisc                       0      0.00%     46.67% # Class of executed instruction
system.cpu.op_class::SimdMult                       0      0.00%     46.67% # Class of executed instruction
system.cpu.op_class::SimdMultAcc                    0      0.00%     46.67% # Class of executed instruction
system.cpu.op_class::SimdShift                      0      0.00%     46.67% # Class of executed instruction
system.cpu.op_class::SimdShiftAcc                   0      0.00%     46.67% # Class of executed instruction
system.cpu.op_class::SimdDiv                        0      0.00%     46.67% # Class of executed instruction
system.cpu.op_class::SimdSqrt                       0      0.00%     46.67% # Class of executed instruction
system.cpu.op_class::SimdFloatAdd                   2     13.33%     60.00% # Class of executed instruction
system.cpu.op_class::SimdFloatAlu                   0      0.00%     60.00% # Class of executed instruction
system.cpu.op_class::SimdFloatCmp                   0      0.00%     60.00% # Class of executed instruction
system.cpu.op_class::SimdFloatCvt                   0      0.00%     60.00% # Class of executed instruction
system.cpu.op_class::SimdFloatDiv                   0      0.00%     60.00% # Class of executed instruction
system.cpu.op_class::SimdFloatMisc                  0      0.00%     60.00% # Class of executed instruction
system.cpu.op_class::SimdFloatMult                  3     20.00%     80.00% # Class of executed instruction
system.cpu.op_class::SimdFloatMultAcc               0      0.00%     80.00% # Class of executed instruction
system.cpu.op_class::SimdFloatSqrt                  0      0.00%     80.00% # Class of executed instruction
system.cpu.op_class::SimdReduceAdd                  0      0.00%     80.00% # Class of executed instruction
system.cpu.op_class::SimdReduceAlu                  0      0.00%     80.00% # Class of executed instruction
system.cpu.op_class::SimdReduceCmp                  0      0.00%     80.00% # Class of executed instruction
system.cpu.op_class::SimdFloatReduceAdd             0      0.00%     80.00% # Class of executed instruction
system.cpu.op_class::SimdFloatReduceCmp             0      0.00%     80.00% # Class of executed instruction
system.cpu.op_class::SimdAes                        0      0.00%     80.00% # Class of executed instruction
system.cpu.op_class::SimdAesMix                     0      0.00%     80.00% # Class of executed instruction
system.cpu.op_class::SimdSha1Hash                   0      0.00%     80.00% # Class of executed instruction
system.cpu.op_class::SimdSha1Hash2                  0      0.00%     80.00% # Class of executed instruction
system.cpu.op_class::SimdSha256Hash                 0      0.00%     80.00% # Class of executed instruction
system.cpu.op_class::SimdSha256Hash2                0      0.00%     80.00% # Class of executed instruction
system.cpu.op_class::SimdShaSigma2                  0      0.00%     80.00% # Class of executed instruction
system.cpu.op_class::SimdShaSigma3                  0      0.00%     80.00% # Class of executed instruction
system.cpu.op_class::SimdPredAlu                    0      0.00%     80.00% # Class of executed instruction
system.cpu.op_class::MemRead                        0      0.00%     80.00% # Class of executed instruction
system.cpu.op_class::MemWrite                       0      0.00%     80.00% # Class of executed instruction
system.cpu.op_class::FloatMemRead                   3     20.00%    100.00% # Class of executed instruction
system.cpu.op_class::FloatMemWrite                  0      0.00%    100.00% # Class of executed instruction
system.cpu.op_class::IprAccess                      0      0.00%    100.00% # Class of executed instruction
system.cpu.op_class::InstPrefetch                   0      0.00%    100.00% # Class of executed instruction
system.cpu.op_class::total                         15                       # Class of executed instruction
system.cpu.workload.numSyscalls                     0                       # Number of system calls
system.membus.snoop_filter.hit_multi_requests            0                       # Number of requests hitting in the snoop filter with multiple (>1) holders of the requested data.
system.membus.snoop_filter.hit_multi_snoops            0                       # Number of snoops hitting in the snoop filter with multiple (>1) holders of the requested data.
system.membus.snoop_filter.hit_single_requests       243877                       # Number of requests hitting in the snoop filter with a single holder of the requested data.
system.membus.snoop_filter.hit_single_snoops            0                       # Number of snoops hitting in the snoop filter with a single holder of the requested data.
system.membus.snoop_filter.tot_requests        496728                       # Total number of requests made to the snoop filter.
system.membus.snoop_filter.tot_snoops               0                       # Total number of snoops made to the snoop filter.
system.switch_cpus.branchPred.BTBCorrect            0                       # Number of correct BTB predictions (this stat may not work properly.
system.switch_cpus.branchPred.BTBHitPct      0.000000                       # BTB Hit Percentage
system.switch_cpus.branchPred.BTBHits               0                       # Number of BTB hits
system.switch_cpus.branchPred.BTBLookups      3682637                       # Number of BTB lookups
system.switch_cpus.branchPred.RASInCorrect            9                       # Number of incorrect RAS predictions.
system.switch_cpus.branchPred.condIncorrect         7348                       # Number of conditional branches incorrect
system.switch_cpus.branchPred.condPredicted      4032920                       # Number of conditional branches predicted
system.switch_cpus.branchPred.indirectHits      3155695                       # Number of indirect target hits.
system.switch_cpus.branchPred.indirectLookups      3682637                       # Number of indirect predictor lookups.
system.switch_cpus.branchPred.indirectMisses       526942                       # Number of indirect misses.
system.switch_cpus.branchPred.lookups         5026359                       # Number of BP lookups
system.switch_cpus.branchPred.usedRAS          493182                       # Number of times the RAS was used to get a target.
system.switch_cpus.branchPredindirectMispredicted         1674                       # Number of mispredicted indirect branches.
system.switch_cpus.cc_regfile_reads          14441016                       # number of cc regfile reads
system.switch_cpus.cc_regfile_writes         14511566                       # number of cc regfile writes
system.switch_cpus.commit.amos                      0                       # Number of atomic instructions committed
system.switch_cpus.commit.branchMispredicts         7399                       # The number of times a branch was mispredicted
system.switch_cpus.commit.branches            1162057                       # Number of branches committed
system.switch_cpus.commit.bw_lim_events       1545588                       # number cycles where commit BW limit reached
system.switch_cpus.commit.commitNonSpecStalls        23852                       # The number of times commit has been forced to stall to communicate backwards
system.switch_cpus.commit.commitSquashedInsts     33171324                       # The number of squashed insts skipped by commit
system.switch_cpus.commit.committedInsts     10000002                       # Number of instructions committed
system.switch_cpus.commit.committedOps       18849196                       # Number of ops (including micro ops) committed
system.switch_cpus.commit.committed_per_cycle::samples     39330340                       # Number of insts commited each cycle
system.switch_cpus.commit.committed_per_cycle::mean     0.479253                       # Number of insts commited each cycle
system.switch_cpus.commit.committed_per_cycle::stdev     1.689436                       # Number of insts commited each cycle
system.switch_cpus.commit.committed_per_cycle::underflows            0      0.00%      0.00% # Number of insts commited each cycle
system.switch_cpus.commit.committed_per_cycle::0     35332534     89.84%     89.84% # Number of insts commited each cycle
system.switch_cpus.commit.committed_per_cycle::1       793675      2.02%     91.85% # Number of insts commited each cycle
system.switch_cpus.commit.committed_per_cycle::2       372689      0.95%     92.80% # Number of insts commited each cycle
system.switch_cpus.commit.committed_per_cycle::3       561109      1.43%     94.23% # Number of insts commited each cycle
system.switch_cpus.commit.committed_per_cycle::4       444471      1.13%     95.36% # Number of insts commited each cycle
system.switch_cpus.commit.committed_per_cycle::5       201466      0.51%     95.87% # Number of insts commited each cycle
system.switch_cpus.commit.committed_per_cycle::6        74758      0.19%     96.06% # Number of insts commited each cycle
system.switch_cpus.commit.committed_per_cycle::7         4050      0.01%     96.07% # Number of insts commited each cycle
system.switch_cpus.commit.committed_per_cycle::8      1545588      3.93%    100.00% # Number of insts commited each cycle
system.switch_cpus.commit.committed_per_cycle::overflows            0      0.00%    100.00% # Number of insts commited each cycle
system.switch_cpus.commit.committed_per_cycle::min_value            0                       # Number of insts commited each cycle
system.switch_cpus.commit.committed_per_cycle::max_value            8                       # Number of insts commited each cycle
system.switch_cpus.commit.committed_per_cycle::total     39330340                       # Number of insts commited each cycle
system.switch_cpus.commit.fp_insts            7755697                       # Number of committed floating point instructions.
system.switch_cpus.commit.function_calls       133713                       # Number of function calls committed.
system.switch_cpus.commit.int_insts          14669480                       # Number of committed integer instructions.
system.switch_cpus.commit.loads               3342337                       # Number of loads committed
system.switch_cpus.commit.membars                   0                       # Number of memory barriers committed
system.switch_cpus.commit.op_class_0::No_OpClass         3302      0.02%      0.02% # Class of committed instruction
system.switch_cpus.commit.op_class_0::IntAlu     10301514     54.65%     54.67% # Class of committed instruction
system.switch_cpus.commit.op_class_0::IntMult       106274      0.56%     55.23% # Class of committed instruction
system.switch_cpus.commit.op_class_0::IntDiv            0      0.00%     55.23% # Class of committed instruction
system.switch_cpus.commit.op_class_0::FloatAdd       637733      3.38%     58.62% # Class of committed instruction
system.switch_cpus.commit.op_class_0::FloatCmp            0      0.00%     58.62% # Class of committed instruction
system.switch_cpus.commit.op_class_0::FloatCvt            0      0.00%     58.62% # Class of committed instruction
system.switch_cpus.commit.op_class_0::FloatMult            0      0.00%     58.62% # Class of committed instruction
system.switch_cpus.commit.op_class_0::FloatMultAcc            0      0.00%     58.62% # Class of committed instruction
system.switch_cpus.commit.op_class_0::FloatDiv            0      0.00%     58.62% # Class of committed instruction
system.switch_cpus.commit.op_class_0::FloatMisc            0      0.00%     58.62% # Class of committed instruction
system.switch_cpus.commit.op_class_0::FloatSqrt            0      0.00%     58.62% # Class of committed instruction
system.switch_cpus.commit.op_class_0::SimdAdd          216      0.00%     58.62% # Class of committed instruction
system.switch_cpus.commit.op_class_0::SimdAddAcc            0      0.00%     58.62% # Class of committed instruction
system.switch_cpus.commit.op_class_0::SimdAlu       216430      1.15%     59.77% # Class of committed instruction
system.switch_cpus.commit.op_class_0::SimdCmp            0      0.00%     59.77% # Class of committed instruction
system.switch_cpus.commit.op_class_0::SimdCvt         2916      0.02%     59.78% # Class of committed instruction
system.switch_cpus.commit.op_class_0::SimdMisc       269023      1.43%     61.21% # Class of committed instruction
system.switch_cpus.commit.op_class_0::SimdMult            0      0.00%     61.21% # Class of committed instruction
system.switch_cpus.commit.op_class_0::SimdMultAcc            0      0.00%     61.21% # Class of committed instruction
system.switch_cpus.commit.op_class_0::SimdShift            0      0.00%     61.21% # Class of committed instruction
system.switch_cpus.commit.op_class_0::SimdShiftAcc            0      0.00%     61.21% # Class of committed instruction
system.switch_cpus.commit.op_class_0::SimdDiv            0      0.00%     61.21% # Class of committed instruction
system.switch_cpus.commit.op_class_0::SimdSqrt            0      0.00%     61.21% # Class of committed instruction
system.switch_cpus.commit.op_class_0::SimdFloatAdd       956439      5.07%     66.28% # Class of committed instruction
system.switch_cpus.commit.op_class_0::SimdFloatAlu            0      0.00%     66.28% # Class of committed instruction
system.switch_cpus.commit.op_class_0::SimdFloatCmp            0      0.00%     66.28% # Class of committed instruction
system.switch_cpus.commit.op_class_0::SimdFloatCvt       159408      0.85%     67.13% # Class of committed instruction
system.switch_cpus.commit.op_class_0::SimdFloatDiv        53135      0.28%     67.41% # Class of committed instruction
system.switch_cpus.commit.op_class_0::SimdFloatMisc            0      0.00%     67.41% # Class of committed instruction
system.switch_cpus.commit.op_class_0::SimdFloatMult       850169      4.51%     71.92% # Class of committed instruction
system.switch_cpus.commit.op_class_0::SimdFloatMultAcc            0      0.00%     71.92% # Class of committed instruction
system.switch_cpus.commit.op_class_0::SimdFloatSqrt            0      0.00%     71.92% # Class of committed instruction
system.switch_cpus.commit.op_class_0::SimdReduceAdd            0      0.00%     71.92% # Class of committed instruction
system.switch_cpus.commit.op_class_0::SimdReduceAlu            0      0.00%     71.92% # Class of committed instruction
system.switch_cpus.commit.op_class_0::SimdReduceCmp            0      0.00%     71.92% # Class of committed instruction
system.switch_cpus.commit.op_class_0::SimdFloatReduceAdd            0      0.00%     71.92% # Class of committed instruction
system.switch_cpus.commit.op_class_0::SimdFloatReduceCmp            0      0.00%     71.92% # Class of committed instruction
system.switch_cpus.commit.op_class_0::SimdAes            0      0.00%     71.92% # Class of committed instruction
system.switch_cpus.commit.op_class_0::SimdAesMix            0      0.00%     71.92% # Class of committed instruction
system.switch_cpus.commit.op_class_0::SimdSha1Hash            0      0.00%     71.92% # Class of committed instruction
system.switch_cpus.commit.op_class_0::SimdSha1Hash2            0      0.00%     71.92% # Class of committed instruction
system.switch_cpus.commit.op_class_0::SimdSha256Hash            0      0.00%     71.92% # Class of committed instruction
system.switch_cpus.commit.op_class_0::SimdSha256Hash2            0      0.00%     71.92% # Class of committed instruction
system.switch_cpus.commit.op_class_0::SimdShaSigma2            0      0.00%     71.92% # Class of committed instruction
system.switch_cpus.commit.op_class_0::SimdShaSigma3            0      0.00%     71.92% # Class of committed instruction
system.switch_cpus.commit.op_class_0::SimdPredAlu            0      0.00%     71.92% # Class of committed instruction
system.switch_cpus.commit.op_class_0::MemRead      1115630      5.92%     77.84% # Class of committed instruction
system.switch_cpus.commit.op_class_0::MemWrite       842245      4.47%     82.31% # Class of committed instruction
system.switch_cpus.commit.op_class_0::FloatMemRead      2226707     11.81%     94.12% # Class of committed instruction
system.switch_cpus.commit.op_class_0::FloatMemWrite      1108055      5.88%    100.00% # Class of committed instruction
system.switch_cpus.commit.op_class_0::IprAccess            0      0.00%    100.00% # Class of committed instruction
system.switch_cpus.commit.op_class_0::InstPrefetch            0      0.00%    100.00% # Class of committed instruction
system.switch_cpus.commit.op_class_0::total     18849196                       # Class of committed instruction
system.switch_cpus.commit.refs                5292637                       # Number of memory references committed
system.switch_cpus.commit.swp_count                 0                       # Number of s/w prefetches committed
system.switch_cpus.commit.vec_insts                 0                       # Number of committed Vector instructions.
system.switch_cpus.committedInsts            10000002                       # Number of Instructions Simulated
system.switch_cpus.committedOps              18849196                       # Number of Ops (including micro ops) Simulated
system.switch_cpus.cpi                       4.366410                       # CPI: Cycles Per Instruction
system.switch_cpus.cpi_total                 4.366410                       # CPI: Total CPI of All Threads
system.switch_cpus.decode.BlockedCycles      30300533                       # Number of cycles decode is blocked
system.switch_cpus.decode.DecodedInsts       64778949                       # Number of instructions handled by decode
system.switch_cpus.decode.IdleCycles          3607294                       # Number of cycles decode is idle
system.switch_cpus.decode.RunCycles           8519833                       # Number of cycles decode is running
system.switch_cpus.decode.SquashCycles         389332                       # Number of cycles decode is squashing
system.switch_cpus.decode.UnblockCycles        820324                       # Number of cycles decode is unblocking
system.switch_cpus.dtb.rdAccesses            12377280                       # TLB accesses on read requests
system.switch_cpus.dtb.rdMisses                  2077                       # TLB misses on read requests
system.switch_cpus.dtb.wrAccesses            10604788                       # TLB accesses on write requests
system.switch_cpus.dtb.wrMisses                  1998                       # TLB misses on write requests
system.switch_cpus.fetch.Branches             5026359                       # Number of branches that fetch encountered
system.switch_cpus.fetch.CacheLines           6314890                       # Number of cache lines fetched
system.switch_cpus.fetch.Cycles              36676666                       # Number of cycles fetch has run and was not squashing or blocked
system.switch_cpus.fetch.IcacheSquashes         46595                       # Number of outstanding Icache misses that were squashed
system.switch_cpus.fetch.Insts               35719420                       # Number of instructions fetch has processed
system.switch_cpus.fetch.MiscStallCycles           51                       # Number of cycles fetch has spent waiting on interrupts, or bad addresses, or out of MSHRs
system.switch_cpus.fetch.PendingTrapStallCycles          481                       # Number of stall cycles due to pending traps
system.switch_cpus.fetch.SquashCycles          778664                       # Number of cycles fetch has spent squashing
system.switch_cpus.fetch.branchRate          0.115114                       # Number of branch fetches per cycle
system.switch_cpus.fetch.icacheStallCycles      6570795                       # Number of cycles fetch is stalled on an Icache miss
system.switch_cpus.fetch.predictedBranches      3648877                       # Number of branches that fetch has predicted taken
system.switch_cpus.fetch.rate                0.818050                       # Number of inst fetches per cycle
system.switch_cpus.fetch.rateDist::samples     43637325                       # Number of instructions fetched each cycle (Total)
system.switch_cpus.fetch.rateDist::mean      1.769580                       # Number of instructions fetched each cycle (Total)
system.switch_cpus.fetch.rateDist::stdev     3.045111                       # Number of instructions fetched each cycle (Total)
system.switch_cpus.fetch.rateDist::underflows            0      0.00%      0.00% # Number of instructions fetched each cycle (Total)
system.switch_cpus.fetch.rateDist::0         30959125     70.95%     70.95% # Number of instructions fetched each cycle (Total)
system.switch_cpus.fetch.rateDist::1           701926      1.61%     72.55% # Number of instructions fetched each cycle (Total)
system.switch_cpus.fetch.rateDist::2           737791      1.69%     74.25% # Number of instructions fetched each cycle (Total)
system.switch_cpus.fetch.rateDist::3           987202      2.26%     76.51% # Number of instructions fetched each cycle (Total)
system.switch_cpus.fetch.rateDist::4          1260514      2.89%     79.40% # Number of instructions fetched each cycle (Total)
system.switch_cpus.fetch.rateDist::5           779625      1.79%     81.18% # Number of instructions fetched each cycle (Total)
system.switch_cpus.fetch.rateDist::6           901553      2.07%     83.25% # Number of instructions fetched each cycle (Total)
system.switch_cpus.fetch.rateDist::7           745601      1.71%     84.96% # Number of instructions fetched each cycle (Total)
system.switch_cpus.fetch.rateDist::8          6563988     15.04%    100.00% # Number of instructions fetched each cycle (Total)
system.switch_cpus.fetch.rateDist::overflows            0      0.00%    100.00% # Number of instructions fetched each cycle (Total)
system.switch_cpus.fetch.rateDist::min_value            0                       # Number of instructions fetched each cycle (Total)
system.switch_cpus.fetch.rateDist::max_value            8                       # Number of instructions fetched each cycle (Total)
system.switch_cpus.fetch.rateDist::total     43637325                       # Number of instructions fetched each cycle (Total)
system.switch_cpus.fp_regfile_reads          16036588                       # number of floating regfile reads
system.switch_cpus.fp_regfile_writes         12337406                       # number of floating regfile writes
system.switch_cpus.idleCycles                   26783                       # Total number of cycles that the CPU has spent unscheduled due to idling
system.switch_cpus.iew.branchMispredicts         9964                       # Number of branch mispredicts detected at execute
system.switch_cpus.iew.exec_branches          3500218                       # Number of branches executed
system.switch_cpus.iew.exec_nop                     0                       # number of nop insts executed
system.switch_cpus.iew.exec_rate             1.311737                       # Inst execution rate
system.switch_cpus.iew.exec_refs             23364768                       # number of memory reference insts executed
system.switch_cpus.iew.exec_stores           10604788                       # Number of stores executed
system.switch_cpus.iew.exec_swp                     0                       # number of swp insts executed
system.switch_cpus.iew.iewBlockCycles         7479961                       # Number of cycles IEW is blocking
system.switch_cpus.iew.iewDispLoadInsts      12601991                       # Number of dispatched load instructions
system.switch_cpus.iew.iewDispNonSpecInsts            0                       # Number of dispatched non-speculative instructions
system.switch_cpus.iew.iewDispSquashedInsts          129                       # Number of squashed instructions skipped by dispatch
system.switch_cpus.iew.iewDispStoreInsts     13733267                       # Number of dispatched store instructions
system.switch_cpus.iew.iewDispatchedInsts     61090615                       # Number of instructions dispatched to IQ
system.switch_cpus.iew.iewExecLoadInsts      12759980                       # Number of load instructions executed
system.switch_cpus.iew.iewExecSquashedInsts       423569                       # Number of squashed instructions skipped in execute
system.switch_cpus.iew.iewExecutedInsts      57275839                       # Number of executed instructions
system.switch_cpus.iew.iewIQFullEvents          30217                       # Number of times the IQ has become full, causing a stall
system.switch_cpus.iew.iewIdleCycles                0                       # Number of cycles IEW is idle
system.switch_cpus.iew.iewLSQFullEvents       1432691                       # Number of times the LSQ has become full, causing a stall
system.switch_cpus.iew.iewSquashCycles         389332                       # Number of cycles IEW is squashing
system.switch_cpus.iew.iewUnblockCycles       1349731                       # Number of cycles IEW is unblocking
system.switch_cpus.iew.lsq.thread0.blockedLoads            0                       # Number of blocked loads due to partial load-store forwarding
system.switch_cpus.iew.lsq.thread0.cacheBlocked        24659                       # Number of times an access to memory failed due to the cache being blocked
system.switch_cpus.iew.lsq.thread0.forwLoads       322450                       # Number of loads that had data forwarded from stores
system.switch_cpus.iew.lsq.thread0.ignoredResponses           34                       # Number of memory responses ignored because the instruction is squashed
system.switch_cpus.iew.lsq.thread0.invAddrLoads            0                       # Number of loads ignored due to an invalid address
system.switch_cpus.iew.lsq.thread0.invAddrSwpfs            0                       # Number of software prefetches ignored due to an invalid address
system.switch_cpus.iew.lsq.thread0.memOrderViolation          334                       # Number of memory ordering violations
system.switch_cpus.iew.lsq.thread0.rescheduledLoads            5                       # Number of loads that were rescheduled
system.switch_cpus.iew.lsq.thread0.squashedLoads      9259638                       # Number of loads squashed
system.switch_cpus.iew.lsq.thread0.squashedStores     11782966                       # Number of stores squashed
system.switch_cpus.iew.memOrderViolationEvents          334                       # Number of memory order violations
system.switch_cpus.iew.predictedNotTakenIncorrect         3444                       # Number of branches that were predicted not taken incorrectly
system.switch_cpus.iew.predictedTakenIncorrect         6520                       # Number of branches that were predicted taken incorrectly
system.switch_cpus.iew.wb_consumers          42223757                       # num instructions consuming a value
system.switch_cpus.iew.wb_count              52851434                       # cumulative count of insts written-back
system.switch_cpus.iew.wb_fanout             0.718990                       # average fanout of values written-back
system.switch_cpus.iew.wb_producers          30358457                       # num instructions producing a value
system.switch_cpus.iew.wb_rate               1.210409                       # insts written-back per cycle
system.switch_cpus.iew.wb_sent               56277117                       # cumulative count of insts sent to commit
system.switch_cpus.int_regfile_reads         76788080                       # number of integer regfile reads
system.switch_cpus.int_regfile_writes        26464465                       # number of integer regfile writes
system.switch_cpus.ipc                       0.229021                       # IPC: Instructions Per Cycle
system.switch_cpus.ipc_total                 0.229021                       # IPC: Total IPC of All Threads
system.switch_cpus.iq.FU_type_0::No_OpClass      3292533      5.71%      5.71% # Type of FU issued
system.switch_cpus.iq.FU_type_0::IntAlu      27629842     47.89%     53.59% # Type of FU issued
system.switch_cpus.iq.FU_type_0::IntMult       106274      0.18%     53.78% # Type of FU issued
system.switch_cpus.iq.FU_type_0::IntDiv             0      0.00%     53.78% # Type of FU issued
system.switch_cpus.iq.FU_type_0::FloatAdd       639125      1.11%     54.88% # Type of FU issued
system.switch_cpus.iq.FU_type_0::FloatCmp            0      0.00%     54.88% # Type of FU issued
system.switch_cpus.iq.FU_type_0::FloatCvt            0      0.00%     54.88% # Type of FU issued
system.switch_cpus.iq.FU_type_0::FloatMult            0      0.00%     54.88% # Type of FU issued
system.switch_cpus.iq.FU_type_0::FloatMultAcc            0      0.00%     54.88% # Type of FU issued
system.switch_cpus.iq.FU_type_0::FloatDiv            0      0.00%     54.88% # Type of FU issued
system.switch_cpus.iq.FU_type_0::FloatMisc            0      0.00%     54.88% # Type of FU issued
system.switch_cpus.iq.FU_type_0::FloatSqrt            0      0.00%     54.88% # Type of FU issued
system.switch_cpus.iq.FU_type_0::SimdAdd          224      0.00%     54.88% # Type of FU issued
system.switch_cpus.iq.FU_type_0::SimdAddAcc            0      0.00%     54.88% # Type of FU issued
system.switch_cpus.iq.FU_type_0::SimdAlu       216766      0.38%     55.26% # Type of FU issued
system.switch_cpus.iq.FU_type_0::SimdCmp            0      0.00%     55.26% # Type of FU issued
system.switch_cpus.iq.FU_type_0::SimdCvt         2972      0.01%     55.27% # Type of FU issued
system.switch_cpus.iq.FU_type_0::SimdMisc       269086      0.47%     55.73% # Type of FU issued
system.switch_cpus.iq.FU_type_0::SimdMult            0      0.00%     55.73% # Type of FU issued
system.switch_cpus.iq.FU_type_0::SimdMultAcc            0      0.00%     55.73% # Type of FU issued
system.switch_cpus.iq.FU_type_0::SimdShift            0      0.00%     55.73% # Type of FU issued
system.switch_cpus.iq.FU_type_0::SimdShiftAcc            0      0.00%     55.73% # Type of FU issued
system.switch_cpus.iq.FU_type_0::SimdDiv            0      0.00%     55.73% # Type of FU issued
system.switch_cpus.iq.FU_type_0::SimdSqrt            0      0.00%     55.73% # Type of FU issued
system.switch_cpus.iq.FU_type_0::SimdFloatAdd       956439      1.66%     57.39% # Type of FU issued
system.switch_cpus.iq.FU_type_0::SimdFloatAlu            0      0.00%     57.39% # Type of FU issued
system.switch_cpus.iq.FU_type_0::SimdFloatCmp            0      0.00%     57.39% # Type of FU issued
system.switch_cpus.iq.FU_type_0::SimdFloatCvt       159408      0.28%     57.67% # Type of FU issued
system.switch_cpus.iq.FU_type_0::SimdFloatDiv        53135      0.09%     57.76% # Type of FU issued
system.switch_cpus.iq.FU_type_0::SimdFloatMisc            0      0.00%     57.76% # Type of FU issued
system.switch_cpus.iq.FU_type_0::SimdFloatMult       850169      1.47%     59.23% # Type of FU issued
system.switch_cpus.iq.FU_type_0::SimdFloatMultAcc            0      0.00%     59.23% # Type of FU issued
system.switch_cpus.iq.FU_type_0::SimdFloatSqrt            0      0.00%     59.23% # Type of FU issued
system.switch_cpus.iq.FU_type_0::SimdReduceAdd            0      0.00%     59.23% # Type of FU issued
system.switch_cpus.iq.FU_type_0::SimdReduceAlu            0      0.00%     59.23% # Type of FU issued
system.switch_cpus.iq.FU_type_0::SimdReduceCmp            0      0.00%     59.23% # Type of FU issued
system.switch_cpus.iq.FU_type_0::SimdFloatReduceAdd            0      0.00%     59.23% # Type of FU issued
system.switch_cpus.iq.FU_type_0::SimdFloatReduceCmp            0      0.00%     59.23% # Type of FU issued
system.switch_cpus.iq.FU_type_0::SimdAes            0      0.00%     59.23% # Type of FU issued
system.switch_cpus.iq.FU_type_0::SimdAesMix            0      0.00%     59.23% # Type of FU issued
system.switch_cpus.iq.FU_type_0::SimdSha1Hash            0      0.00%     59.23% # Type of FU issued
system.switch_cpus.iq.FU_type_0::SimdSha1Hash2            0      0.00%     59.23% # Type of FU issued
system.switch_cpus.iq.FU_type_0::SimdSha256Hash            0      0.00%     59.23% # Type of FU issued
system.switch_cpus.iq.FU_type_0::SimdSha256Hash2            0      0.00%     59.23% # Type of FU issued
system.switch_cpus.iq.FU_type_0::SimdShaSigma2            0      0.00%     59.23% # Type of FU issued
system.switch_cpus.iq.FU_type_0::SimdShaSigma3            0      0.00%     59.23% # Type of FU issued
system.switch_cpus.iq.FU_type_0::SimdPredAlu            0      0.00%     59.23% # Type of FU issued
system.switch_cpus.iq.FU_type_0::MemRead      3658122      6.34%     65.57% # Type of FU issued
system.switch_cpus.iq.FU_type_0::MemWrite      3730932      6.47%     72.04% # Type of FU issued
system.switch_cpus.iq.FU_type_0::FloatMemRead      9259644     16.05%     88.09% # Type of FU issued
system.switch_cpus.iq.FU_type_0::FloatMemWrite      6874742     11.91%    100.00% # Type of FU issued
system.switch_cpus.iq.FU_type_0::IprAccess            0      0.00%    100.00% # Type of FU issued
system.switch_cpus.iq.FU_type_0::InstPrefetch            0      0.00%    100.00% # Type of FU issued
system.switch_cpus.iq.FU_type_0::total       57699413                       # Type of FU issued
system.switch_cpus.iq.fp_alu_accesses        22799613                       # Number of floating point alu accesses
system.switch_cpus.iq.fp_inst_queue_reads     43414599                       # Number of floating instruction queue reads
system.switch_cpus.iq.fp_inst_queue_wakeup_accesses     19503911                       # Number of floating instruction queue wakeup accesses
system.switch_cpus.iq.fp_inst_queue_writes     38364961                       # Number of floating instruction queue writes
system.switch_cpus.iq.fu_busy_cnt             3099702                       # FU busy when requested
system.switch_cpus.iq.fu_busy_rate           0.053722                       # FU busy rate (busy events/executed inst)
system.switch_cpus.iq.fu_full::No_OpClass            0      0.00%      0.00% # attempts to use FU when none available
system.switch_cpus.iq.fu_full::IntAlu          181873      5.87%      5.87% # attempts to use FU when none available
system.switch_cpus.iq.fu_full::IntMult              0      0.00%      5.87% # attempts to use FU when none available
system.switch_cpus.iq.fu_full::IntDiv               0      0.00%      5.87% # attempts to use FU when none available
system.switch_cpus.iq.fu_full::FloatAdd             0      0.00%      5.87% # attempts to use FU when none available
system.switch_cpus.iq.fu_full::FloatCmp             0      0.00%      5.87% # attempts to use FU when none available
system.switch_cpus.iq.fu_full::FloatCvt             0      0.00%      5.87% # attempts to use FU when none available
system.switch_cpus.iq.fu_full::FloatMult            0      0.00%      5.87% # attempts to use FU when none available
system.switch_cpus.iq.fu_full::FloatMultAcc            0      0.00%      5.87% # attempts to use FU when none available
system.switch_cpus.iq.fu_full::FloatDiv             0      0.00%      5.87% # attempts to use FU when none available
system.switch_cpus.iq.fu_full::FloatMisc            0      0.00%      5.87% # attempts to use FU when none available
system.switch_cpus.iq.fu_full::FloatSqrt            0      0.00%      5.87% # attempts to use FU when none available
system.switch_cpus.iq.fu_full::SimdAdd              0      0.00%      5.87% # attempts to use FU when none available
system.switch_cpus.iq.fu_full::SimdAddAcc            0      0.00%      5.87% # attempts to use FU when none available
system.switch_cpus.iq.fu_full::SimdAlu            437      0.01%      5.88% # attempts to use FU when none available
system.switch_cpus.iq.fu_full::SimdCmp              0      0.00%      5.88% # attempts to use FU when none available
system.switch_cpus.iq.fu_full::SimdCvt              0      0.00%      5.88% # attempts to use FU when none available
system.switch_cpus.iq.fu_full::SimdMisc           322      0.01%      5.89% # attempts to use FU when none available
system.switch_cpus.iq.fu_full::SimdMult             0      0.00%      5.89% # attempts to use FU when none available
system.switch_cpus.iq.fu_full::SimdMultAcc            0      0.00%      5.89% # attempts to use FU when none available
system.switch_cpus.iq.fu_full::SimdShift            0      0.00%      5.89% # attempts to use FU when none available
system.switch_cpus.iq.fu_full::SimdShiftAcc            0      0.00%      5.89% # attempts to use FU when none available
system.switch_cpus.iq.fu_full::SimdDiv              0      0.00%      5.89% # attempts to use FU when none available
system.switch_cpus.iq.fu_full::SimdSqrt             0      0.00%      5.89% # attempts to use FU when none available
system.switch_cpus.iq.fu_full::SimdFloatAdd            0      0.00%      5.89% # attempts to use FU when none available
system.switch_cpus.iq.fu_full::SimdFloatAlu            0      0.00%      5.89% # attempts to use FU when none available
system.switch_cpus.iq.fu_full::SimdFloatCmp            0      0.00%      5.89% # attempts to use FU when none available
system.switch_cpus.iq.fu_full::SimdFloatCvt            0      0.00%      5.89% # attempts to use FU when none available
system.switch_cpus.iq.fu_full::SimdFloatDiv            0      0.00%      5.89% # attempts to use FU when none available
system.switch_cpus.iq.fu_full::SimdFloatMisc            0      0.00%      5.89% # attempts to use FU when none available
system.switch_cpus.iq.fu_full::SimdFloatMult            0      0.00%      5.89% # attempts to use FU when none available
system.switch_cpus.iq.fu_full::SimdFloatMultAcc            0      0.00%      5.89% # attempts to use FU when none available
system.switch_cpus.iq.fu_full::SimdFloatSqrt            0      0.00%      5.89% # attempts to use FU when none available
system.switch_cpus.iq.fu_full::SimdReduceAdd            0      0.00%      5.89% # attempts to use FU when none available
system.switch_cpus.iq.fu_full::SimdReduceAlu            0      0.00%      5.89% # attempts to use FU when none available
system.switch_cpus.iq.fu_full::SimdReduceCmp            0      0.00%      5.89% # attempts to use FU when none available
system.switch_cpus.iq.fu_full::SimdFloatReduceAdd            0      0.00%      5.89% # attempts to use FU when none available
system.switch_cpus.iq.fu_full::SimdFloatReduceCmp            0      0.00%      5.89% # attempts to use FU when none available
system.switch_cpus.iq.fu_full::SimdAes              0      0.00%      5.89% # attempts to use FU when none available
system.switch_cpus.iq.fu_full::SimdAesMix            0      0.00%      5.89% # attempts to use FU when none available
system.switch_cpus.iq.fu_full::SimdSha1Hash            0      0.00%      5.89% # attempts to use FU when none available
system.switch_cpus.iq.fu_full::SimdSha1Hash2            0      0.00%      5.89% # attempts to use FU when none available
system.switch_cpus.iq.fu_full::SimdSha256Hash            0      0.00%      5.89% # attempts to use FU when none available
system.switch_cpus.iq.fu_full::SimdSha256Hash2            0      0.00%      5.89% # attempts to use FU when none available
system.switch_cpus.iq.fu_full::SimdShaSigma2            0      0.00%      5.89% # attempts to use FU when none available
system.switch_cpus.iq.fu_full::SimdShaSigma3            0      0.00%      5.89% # attempts to use FU when none available
system.switch_cpus.iq.fu_full::SimdPredAlu            0      0.00%      5.89% # attempts to use FU when none available
system.switch_cpus.iq.fu_full::MemRead         202636      6.54%     12.43% # attempts to use FU when none available
system.switch_cpus.iq.fu_full::MemWrite        472929     15.26%     27.69% # attempts to use FU when none available
system.switch_cpus.iq.fu_full::FloatMemRead      1664432     53.70%     81.38% # attempts to use FU when none available
system.switch_cpus.iq.fu_full::FloatMemWrite       577073     18.62%    100.00% # attempts to use FU when none available
system.switch_cpus.iq.fu_full::IprAccess            0      0.00%    100.00% # attempts to use FU when none available
system.switch_cpus.iq.fu_full::InstPrefetch            0      0.00%    100.00% # attempts to use FU when none available
system.switch_cpus.iq.int_alu_accesses       34706969                       # Number of integer alu accesses
system.switch_cpus.iq.int_inst_queue_reads    118781474                       # Number of integer instruction queue reads
system.switch_cpus.iq.int_inst_queue_wakeup_accesses     33347523                       # Number of integer instruction queue wakeup accesses
system.switch_cpus.iq.int_inst_queue_writes     64967342                       # Number of integer instruction queue writes
system.switch_cpus.iq.iqInstsAdded           60804324                       # Number of instructions added to the IQ (excludes non-spec)
system.switch_cpus.iq.iqInstsIssued          57699413                       # Number of instructions issued
system.switch_cpus.iq.iqNonSpecInstsAdded       286291                       # Number of non-speculative instructions added to the IQ
system.switch_cpus.iq.iqSquashedInstsExamined     42241355                       # Number of squashed instructions iterated over during squash; mainly for profiling
system.switch_cpus.iq.iqSquashedInstsIssued        60225                       # Number of squashed instructions issued
system.switch_cpus.iq.iqSquashedNonSpecRemoved       262439                       # Number of squashed non-spec instructions that were removed
system.switch_cpus.iq.iqSquashedOperandsExamined     16668920                       # Number of squashed operands that are examined and possibly removed from graph
system.switch_cpus.iq.issued_per_cycle::samples     43637325                       # Number of insts issued each cycle
system.switch_cpus.iq.issued_per_cycle::mean     1.322249                       # Number of insts issued each cycle
system.switch_cpus.iq.issued_per_cycle::stdev     2.373500                       # Number of insts issued each cycle
system.switch_cpus.iq.issued_per_cycle::underflows            0      0.00%      0.00% # Number of insts issued each cycle
system.switch_cpus.iq.issued_per_cycle::0     30984961     71.01%     71.01% # Number of insts issued each cycle
system.switch_cpus.iq.issued_per_cycle::1      1202772      2.76%     73.76% # Number of insts issued each cycle
system.switch_cpus.iq.issued_per_cycle::2      1660065      3.80%     77.57% # Number of insts issued each cycle
system.switch_cpus.iq.issued_per_cycle::3      1271048      2.91%     80.48% # Number of insts issued each cycle
system.switch_cpus.iq.issued_per_cycle::4      2015644      4.62%     85.10% # Number of insts issued each cycle
system.switch_cpus.iq.issued_per_cycle::5      1815241      4.16%     89.26% # Number of insts issued each cycle
system.switch_cpus.iq.issued_per_cycle::6      2173316      4.98%     94.24% # Number of insts issued each cycle
system.switch_cpus.iq.issued_per_cycle::7       929534      2.13%     96.37% # Number of insts issued each cycle
system.switch_cpus.iq.issued_per_cycle::8      1584744      3.63%    100.00% # Number of insts issued each cycle
system.switch_cpus.iq.issued_per_cycle::overflows            0      0.00%    100.00% # Number of insts issued each cycle
system.switch_cpus.iq.issued_per_cycle::min_value            0                       # Number of insts issued each cycle
system.switch_cpus.iq.issued_per_cycle::max_value            8                       # Number of insts issued each cycle
system.switch_cpus.iq.issued_per_cycle::total     43637325                       # Number of insts issued each cycle
system.switch_cpus.iq.rate                   1.321438                       # Inst issue rate
system.switch_cpus.iq.vec_alu_accesses              0                       # Number of vector alu accesses
system.switch_cpus.iq.vec_inst_queue_reads            0                       # Number of vector instruction queue reads
system.switch_cpus.iq.vec_inst_queue_wakeup_accesses            0                       # Number of vector instruction queue wakeup accesses
system.switch_cpus.iq.vec_inst_queue_writes            0                       # Number of vector instruction queue writes
system.switch_cpus.itb.rdAccesses                   0                       # TLB accesses on read requests
system.switch_cpus.itb.rdMisses                     0                       # TLB misses on read requests
system.switch_cpus.itb.wrAccesses             6314972                       # TLB accesses on write requests
system.switch_cpus.itb.wrMisses                   122                       # TLB misses on write requests
system.switch_cpus.memDep0.conflictingLoads        14344                       # Number of conflicting loads.
system.switch_cpus.memDep0.conflictingStores      3383176                       # Number of conflicting stores.
system.switch_cpus.memDep0.insertedLoads     12601991                       # Number of loads inserted to the mem dependence unit.
system.switch_cpus.memDep0.insertedStores     13733267                       # Number of stores inserted to the mem dependence unit.
system.switch_cpus.misc_regfile_reads        31197428                       # number of misc regfile reads
system.switch_cpus.misc_regfile_writes              1                       # number of misc regfile writes
system.switch_cpus.numCycles                 43664108                       # number of cpu cycles simulated
system.switch_cpus.numWorkItemsCompleted            0                       # number of work items this cpu completed
system.switch_cpus.numWorkItemsStarted              0                       # number of work items this cpu started
system.switch_cpus.rename.BlockCycles         8909273                       # Number of cycles rename is blocking
system.switch_cpus.rename.CommittedMaps      20372182                       # Number of HB maps that are committed
system.switch_cpus.rename.IQFullEvents         141363                       # Number of times rename has blocked due to IQ full
system.switch_cpus.rename.IdleCycles          4024441                       # Number of cycles rename is idle
system.switch_cpus.rename.LQFullEvents         473008                       # Number of times rename has blocked due to LQ full
system.switch_cpus.rename.ROBFullEvents          2542                       # Number of times rename has blocked due to ROB full
system.switch_cpus.rename.RenameLookups     155524533                       # Number of register rename lookups that rename has made
system.switch_cpus.rename.RenamedInsts       62310398                       # Number of instructions processed by rename
system.switch_cpus.rename.RenamedOperands     56532198                       # Number of destination operands rename has renamed
system.switch_cpus.rename.RunCycles           8764733                       # Number of cycles rename is running
system.switch_cpus.rename.SQFullEvents       21036167                       # Number of times rename has blocked due to SQ full
system.switch_cpus.rename.SquashCycles         389332                       # Number of cycles rename is squashing
system.switch_cpus.rename.UnblockCycles      21549537                       # Number of cycles rename is unblocking
system.switch_cpus.rename.UndoneMaps         36159918                       # Number of HB maps that are undone due to squashing
system.switch_cpus.rename.fp_rename_lookups     18820724                       # Number of floating rename lookups
system.switch_cpus.rename.int_rename_lookups     86156944                       # Number of integer rename lookups
system.switch_cpus.rename.serializeStallCycles            0                       # count of cycles rename stalled for serializing inst
system.switch_cpus.rename.serializingInsts            0                       # count of serializing insts renamed
system.switch_cpus.rename.skidInsts           5624326                       # count of insts added to the skid buffer
system.switch_cpus.rename.tempSerializingInsts            0                       # count of temporary serializing insts renamed
system.switch_cpus.rob.rob_reads             84844056                       # The number of ROB reads
system.switch_cpus.rob.rob_writes           108348191                       # The number of ROB writes
system.switch_cpus.timesIdled                     415                       # Number of times that the entire CPU went into an idle state and unscheduled itself
system.tol2bus.snoop_filter.hit_multi_requests            1                       # Number of requests hitting in the snoop filter with multiple (>1) holders of the requested data.
system.tol2bus.snoop_filter.hit_multi_snoops            0                       # Number of snoops hitting in the snoop filter with multiple (>1) holders of the requested data.
system.tol2bus.snoop_filter.hit_single_requests       252381                       # Number of requests hitting in the snoop filter with a single holder of the requested data.
system.tol2bus.snoop_filter.hit_single_snoops       181399                       # Number of snoops hitting in the snoop filter with a single holder of the requested data.
system.tol2bus.snoop_filter.tot_requests       506145                       # Total number of requests made to the snoop filter.
system.tol2bus.snoop_filter.tot_snoops         181399                       # Total number of snoops made to the snoop filter.
system.membus.pwrStateResidencyTicks::UNDEFINED 1774454923000                       # Cumulative time (in ticks) in various power states
system.membus.trans_dist::ReadResp             126912                       # Transaction distribution
system.membus.trans_dist::WritebackDirty       118614                       # Transaction distribution
system.membus.trans_dist::CleanEvict           125263                       # Transaction distribution
system.membus.trans_dist::ReadExReq            125939                       # Transaction distribution
system.membus.trans_dist::ReadExResp           125939                       # Transaction distribution
system.membus.trans_dist::ReadSharedReq        126912                       # Transaction distribution
system.membus.pkt_count_system.l2.mem_side::system.mem_ctrls.port       749579                       # Packet count per connected master and slave (bytes)
system.membus.pkt_count_system.l2.mem_side::total       749579                       # Packet count per connected master and slave (bytes)
system.membus.pkt_count::total                 749579                       # Packet count per connected master and slave (bytes)
system.membus.pkt_size_system.l2.mem_side::system.mem_ctrls.port     23773760                       # Cumulative packet size per connected master and slave (bytes)
system.membus.pkt_size_system.l2.mem_side::total     23773760                       # Cumulative packet size per connected master and slave (bytes)
system.membus.pkt_size::total                23773760                       # Cumulative packet size per connected master and slave (bytes)
system.membus.snoops                                0                       # Total snoops (count)
system.membus.snoopTraffic                          0                       # Total snoop traffic (bytes)
system.membus.snoop_fanout::samples            252851                       # Request fanout histogram
system.membus.snoop_fanout::mean                    0                       # Request fanout histogram
system.membus.snoop_fanout::stdev                   0                       # Request fanout histogram
system.membus.snoop_fanout::underflows              0      0.00%      0.00% # Request fanout histogram
system.membus.snoop_fanout::0                  252851    100.00%    100.00% # Request fanout histogram
system.membus.snoop_fanout::1                       0      0.00%    100.00% # Request fanout histogram
system.membus.snoop_fanout::overflows               0      0.00%    100.00% # Request fanout histogram
system.membus.snoop_fanout::min_value               0                       # Request fanout histogram
system.membus.snoop_fanout::max_value               0                       # Request fanout histogram
system.membus.snoop_fanout::total              252851                       # Request fanout histogram
system.membus.reqLayer2.occupancy           997896500                       # Layer occupancy (ticks)
system.membus.reqLayer2.utilization               4.6                       # Layer utilization (%)
system.membus.respLayer1.occupancy         1317621000                       # Layer occupancy (ticks)
system.membus.respLayer1.utilization              6.0                       # Layer utilization (%)
system.switch_cpus.pwrStateResidencyTicks::OFF  21832064250                       # Cumulative time (in ticks) in various power states
system.switch_cpus.dtb.walker.pwrStateResidencyTicks::UNDEFINED 1774454923000                       # Cumulative time (in ticks) in various power states
system.switch_cpus.itb.walker.pwrStateResidencyTicks::UNDEFINED 1774454923000                       # Cumulative time (in ticks) in various power states
system.tol2bus.pwrStateResidencyTicks::UNDEFINED 1774454923000                       # Cumulative time (in ticks) in various power states
system.tol2bus.trans_dist::ReadResp            127821                       # Transaction distribution
system.tol2bus.trans_dist::WritebackDirty       244159                       # Transaction distribution
system.tol2bus.trans_dist::WritebackClean          612                       # Transaction distribution
system.tol2bus.trans_dist::CleanEvict          318727                       # Transaction distribution
system.tol2bus.trans_dist::ReadExReq           125942                       # Transaction distribution
system.tol2bus.trans_dist::ReadExResp          125942                       # Transaction distribution
system.tol2bus.trans_dist::ReadCleanReq           970                       # Transaction distribution
system.tol2bus.trans_dist::ReadSharedReq       126852                       # Transaction distribution
system.tol2bus.pkt_count_system.cpu.icache.mem_side::system.l2.cpu_side         2552                       # Packet count per connected master and slave (bytes)
system.tol2bus.pkt_count_system.cpu.dcache.mem_side::system.l2.cpu_side       757356                       # Packet count per connected master and slave (bytes)
system.tol2bus.pkt_count::total                759908                       # Packet count per connected master and slave (bytes)
system.tol2bus.pkt_size_system.cpu.icache.mem_side::system.l2.cpu_side       101248                       # Cumulative packet size per connected master and slave (bytes)
system.tol2bus.pkt_size_system.cpu.dcache.mem_side::system.l2.cpu_side     24213568                       # Cumulative packet size per connected master and slave (bytes)
system.tol2bus.pkt_size::total               24314816                       # Cumulative packet size per connected master and slave (bytes)
system.tol2bus.snoops                          311117                       # Total snoops (count)
system.tol2bus.snoopTraffic                   7591360                       # Total snoop traffic (bytes)
system.tol2bus.snoop_fanout::samples           564881                       # Request fanout histogram
system.tol2bus.snoop_fanout::mean            0.321130                       # Request fanout histogram
system.tol2bus.snoop_fanout::stdev           0.466911                       # Request fanout histogram
system.tol2bus.snoop_fanout::underflows             0      0.00%      0.00% # Request fanout histogram
system.tol2bus.snoop_fanout::0                 383481     67.89%     67.89% # Request fanout histogram
system.tol2bus.snoop_fanout::1                 181400     32.11%    100.00% # Request fanout histogram
system.tol2bus.snoop_fanout::2                      0      0.00%    100.00% # Request fanout histogram
system.tol2bus.snoop_fanout::3                      0      0.00%    100.00% # Request fanout histogram
system.tol2bus.snoop_fanout::4                      0      0.00%    100.00% # Request fanout histogram
system.tol2bus.snoop_fanout::overflows              0      0.00%    100.00% # Request fanout histogram
system.tol2bus.snoop_fanout::min_value              0                       # Request fanout histogram
system.tol2bus.snoop_fanout::max_value              1                       # Request fanout histogram
system.tol2bus.snoop_fanout::total             564881                       # Request fanout histogram
system.tol2bus.reqLayer0.occupancy          379226500                       # Layer occupancy (ticks)
system.tol2bus.reqLayer0.utilization              1.7                       # Layer utilization (%)
system.tol2bus.respLayer1.occupancy         379186500                       # Layer occupancy (ticks)
system.tol2bus.respLayer1.utilization             1.7                       # Layer utilization (%)
system.tol2bus.respLayer0.occupancy           1452000                       # Layer occupancy (ticks)
system.tol2bus.respLayer0.utilization             0.0                       # Layer utilization (%)
system.voltage_domain.voltage                       1                       # Voltage in Volts
system.clk_domain.clock                          1000                       # Clock period in ticks
system.l2.pwrStateResidencyTicks::UNDEFINED 1774454923000                       # Cumulative time (in ticks) in various power states
system.l2.demand_hits::.switch_cpus.inst          572                       # number of demand (read+write) hits
system.l2.demand_hits::.switch_cpus.data          341                       # number of demand (read+write) hits
system.l2.demand_hits::total                      913                       # number of demand (read+write) hits
system.l2.overall_hits::.switch_cpus.inst          572                       # number of overall hits
system.l2.overall_hits::.switch_cpus.data          341                       # number of overall hits
system.l2.overall_hits::total                     913                       # number of overall hits
system.l2.demand_misses::.cpu.inst                  2                       # number of demand (read+write) misses
system.l2.demand_misses::.cpu.data                  2                       # number of demand (read+write) misses
system.l2.demand_misses::.switch_cpus.inst          396                       # number of demand (read+write) misses
system.l2.demand_misses::.switch_cpus.data       252451                       # number of demand (read+write) misses
system.l2.demand_misses::total                 252851                       # number of demand (read+write) misses
system.l2.overall_misses::.cpu.inst                 2                       # number of overall misses
system.l2.overall_misses::.cpu.data                 2                       # number of overall misses
system.l2.overall_misses::.switch_cpus.inst          396                       # number of overall misses
system.l2.overall_misses::.switch_cpus.data       252451                       # number of overall misses
system.l2.overall_misses::total                252851                       # number of overall misses
system.l2.demand_miss_latency::.switch_cpus.inst     32349000                       # number of demand (read+write) miss cycles
system.l2.demand_miss_latency::.switch_cpus.data  20582939000                       # number of demand (read+write) miss cycles
system.l2.demand_miss_latency::total      20615288000                       # number of demand (read+write) miss cycles
system.l2.overall_miss_latency::.switch_cpus.inst     32349000                       # number of overall miss cycles
system.l2.overall_miss_latency::.switch_cpus.data  20582939000                       # number of overall miss cycles
system.l2.overall_miss_latency::total     20615288000                       # number of overall miss cycles
system.l2.demand_accesses::.cpu.inst                2                       # number of demand (read+write) accesses
system.l2.demand_accesses::.cpu.data                2                       # number of demand (read+write) accesses
system.l2.demand_accesses::.switch_cpus.inst          968                       # number of demand (read+write) accesses
system.l2.demand_accesses::.switch_cpus.data       252792                       # number of demand (read+write) accesses
system.l2.demand_accesses::total               253764                       # number of demand (read+write) accesses
system.l2.overall_accesses::.cpu.inst               2                       # number of overall (read+write) accesses
system.l2.overall_accesses::.cpu.data               2                       # number of overall (read+write) accesses
system.l2.overall_accesses::.switch_cpus.inst          968                       # number of overall (read+write) accesses
system.l2.overall_accesses::.switch_cpus.data       252792                       # number of overall (read+write) accesses
system.l2.overall_accesses::total              253764                       # number of overall (read+write) accesses
system.l2.demand_miss_rate::.cpu.inst               1                       # miss rate for demand accesses
system.l2.demand_miss_rate::.cpu.data               1                       # miss rate for demand accesses
system.l2.demand_miss_rate::.switch_cpus.inst     0.409091                       # miss rate for demand accesses
system.l2.demand_miss_rate::.switch_cpus.data     0.998651                       # miss rate for demand accesses
system.l2.demand_miss_rate::total            0.996402                       # miss rate for demand accesses
system.l2.overall_miss_rate::.cpu.inst              1                       # miss rate for overall accesses
system.l2.overall_miss_rate::.cpu.data              1                       # miss rate for overall accesses
system.l2.overall_miss_rate::.switch_cpus.inst     0.409091                       # miss rate for overall accesses
system.l2.overall_miss_rate::.switch_cpus.data     0.998651                       # miss rate for overall accesses
system.l2.overall_miss_rate::total           0.996402                       # miss rate for overall accesses
system.l2.demand_avg_miss_latency::.switch_cpus.inst 81689.393939                       # average overall miss latency
system.l2.demand_avg_miss_latency::.switch_cpus.data 81532.412230                       # average overall miss latency
system.l2.demand_avg_miss_latency::total 81531.368276                       # average overall miss latency
system.l2.overall_avg_miss_latency::.switch_cpus.inst 81689.393939                       # average overall miss latency
system.l2.overall_avg_miss_latency::.switch_cpus.data 81532.412230                       # average overall miss latency
system.l2.overall_avg_miss_latency::total 81531.368276                       # average overall miss latency
system.l2.blocked_cycles::no_mshrs                  0                       # number of cycles access was blocked
system.l2.blocked_cycles::no_targets                0                       # number of cycles access was blocked
system.l2.blocked::no_mshrs                         0                       # number of cycles access was blocked
system.l2.blocked::no_targets                       0                       # number of cycles access was blocked
system.l2.avg_blocked_cycles::no_mshrs            nan                       # average number of cycles each access was blocked
system.l2.avg_blocked_cycles::no_targets          nan                       # average number of cycles each access was blocked
system.l2.writebacks::.writebacks              118615                       # number of writebacks
system.l2.writebacks::total                    118615                       # number of writebacks
system.l2.demand_mshr_misses::.switch_cpus.inst          396                       # number of demand (read+write) MSHR misses
system.l2.demand_mshr_misses::.switch_cpus.data       252451                       # number of demand (read+write) MSHR misses
system.l2.demand_mshr_misses::total            252847                       # number of demand (read+write) MSHR misses
system.l2.overall_mshr_misses::.switch_cpus.inst          396                       # number of overall MSHR misses
system.l2.overall_mshr_misses::.switch_cpus.data       252451                       # number of overall MSHR misses
system.l2.overall_mshr_misses::total           252847                       # number of overall MSHR misses
system.l2.demand_mshr_miss_latency::.switch_cpus.inst     28389000                       # number of demand (read+write) MSHR miss cycles
system.l2.demand_mshr_miss_latency::.switch_cpus.data  18058429000                       # number of demand (read+write) MSHR miss cycles
system.l2.demand_mshr_miss_latency::total  18086818000                       # number of demand (read+write) MSHR miss cycles
system.l2.overall_mshr_miss_latency::.switch_cpus.inst     28389000                       # number of overall MSHR miss cycles
system.l2.overall_mshr_miss_latency::.switch_cpus.data  18058429000                       # number of overall MSHR miss cycles
system.l2.overall_mshr_miss_latency::total  18086818000                       # number of overall MSHR miss cycles
system.l2.demand_mshr_miss_rate::.switch_cpus.inst     0.409091                       # mshr miss rate for demand accesses
system.l2.demand_mshr_miss_rate::.switch_cpus.data     0.998651                       # mshr miss rate for demand accesses
system.l2.demand_mshr_miss_rate::total       0.996386                       # mshr miss rate for demand accesses
system.l2.overall_mshr_miss_rate::.switch_cpus.inst     0.409091                       # mshr miss rate for overall accesses
system.l2.overall_mshr_miss_rate::.switch_cpus.data     0.998651                       # mshr miss rate for overall accesses
system.l2.overall_mshr_miss_rate::total      0.996386                       # mshr miss rate for overall accesses
system.l2.demand_avg_mshr_miss_latency::.switch_cpus.inst 71689.393939                       # average overall mshr miss latency
system.l2.demand_avg_mshr_miss_latency::.switch_cpus.data 71532.412230                       # average overall mshr miss latency
system.l2.demand_avg_mshr_miss_latency::total 71532.658090                       # average overall mshr miss latency
system.l2.overall_avg_mshr_miss_latency::.switch_cpus.inst 71689.393939                       # average overall mshr miss latency
system.l2.overall_avg_mshr_miss_latency::.switch_cpus.data 71532.412230                       # average overall mshr miss latency
system.l2.overall_avg_mshr_miss_latency::total 71532.658090                       # average overall mshr miss latency
system.l2.replacements                         311117                       # number of replacements
system.l2.WritebackDirty_hits::.writebacks       125544                       # number of WritebackDirty hits
system.l2.WritebackDirty_hits::total           125544                       # number of WritebackDirty hits
system.l2.WritebackDirty_accesses::.writebacks       125544                       # number of WritebackDirty accesses(hits+misses)
system.l2.WritebackDirty_accesses::total       125544                       # number of WritebackDirty accesses(hits+misses)
system.l2.WritebackClean_hits::.writebacks          612                       # number of WritebackClean hits
system.l2.WritebackClean_hits::total              612                       # number of WritebackClean hits
system.l2.WritebackClean_accesses::.writebacks          612                       # number of WritebackClean accesses(hits+misses)
system.l2.WritebackClean_accesses::total          612                       # number of WritebackClean accesses(hits+misses)
system.l2.CleanEvict_mshr_misses::.writebacks       114160                       # number of CleanEvict MSHR misses
system.l2.CleanEvict_mshr_misses::total        114160                       # number of CleanEvict MSHR misses
system.l2.CleanEvict_mshr_miss_rate::.writebacks          inf                       # mshr miss rate for CleanEvict accesses
system.l2.CleanEvict_mshr_miss_rate::total          inf                       # mshr miss rate for CleanEvict accesses
system.l2.ReadExReq_hits::.switch_cpus.data            3                       # number of ReadExReq hits
system.l2.ReadExReq_hits::total                     3                       # number of ReadExReq hits
system.l2.ReadExReq_misses::.switch_cpus.data       125939                       # number of ReadExReq misses
system.l2.ReadExReq_misses::total              125939                       # number of ReadExReq misses
system.l2.ReadExReq_miss_latency::.switch_cpus.data   9896447500                       # number of ReadExReq miss cycles
system.l2.ReadExReq_miss_latency::total    9896447500                       # number of ReadExReq miss cycles
system.l2.ReadExReq_accesses::.switch_cpus.data       125942                       # number of ReadExReq accesses(hits+misses)
system.l2.ReadExReq_accesses::total            125942                       # number of ReadExReq accesses(hits+misses)
system.l2.ReadExReq_miss_rate::.switch_cpus.data     0.999976                       # miss rate for ReadExReq accesses
system.l2.ReadExReq_miss_rate::total         0.999976                       # miss rate for ReadExReq accesses
system.l2.ReadExReq_avg_miss_latency::.switch_cpus.data 78581.277444                       # average ReadExReq miss latency
system.l2.ReadExReq_avg_miss_latency::total 78581.277444                       # average ReadExReq miss latency
system.l2.ReadExReq_mshr_misses::.switch_cpus.data       125939                       # number of ReadExReq MSHR misses
system.l2.ReadExReq_mshr_misses::total         125939                       # number of ReadExReq MSHR misses
system.l2.ReadExReq_mshr_miss_latency::.switch_cpus.data   8637057500                       # number of ReadExReq MSHR miss cycles
system.l2.ReadExReq_mshr_miss_latency::total   8637057500                       # number of ReadExReq MSHR miss cycles
system.l2.ReadExReq_mshr_miss_rate::.switch_cpus.data     0.999976                       # mshr miss rate for ReadExReq accesses
system.l2.ReadExReq_mshr_miss_rate::total     0.999976                       # mshr miss rate for ReadExReq accesses
system.l2.ReadExReq_avg_mshr_miss_latency::.switch_cpus.data 68581.277444                       # average ReadExReq mshr miss latency
system.l2.ReadExReq_avg_mshr_miss_latency::total 68581.277444                       # average ReadExReq mshr miss latency
system.l2.ReadCleanReq_hits::.switch_cpus.inst          572                       # number of ReadCleanReq hits
system.l2.ReadCleanReq_hits::total                572                       # number of ReadCleanReq hits
system.l2.ReadCleanReq_misses::.cpu.inst            2                       # number of ReadCleanReq misses
system.l2.ReadCleanReq_misses::.switch_cpus.inst          396                       # number of ReadCleanReq misses
system.l2.ReadCleanReq_misses::total              398                       # number of ReadCleanReq misses
system.l2.ReadCleanReq_miss_latency::.switch_cpus.inst     32349000                       # number of ReadCleanReq miss cycles
system.l2.ReadCleanReq_miss_latency::total     32349000                       # number of ReadCleanReq miss cycles
system.l2.ReadCleanReq_accesses::.cpu.inst            2                       # number of ReadCleanReq accesses(hits+misses)
system.l2.ReadCleanReq_accesses::.switch_cpus.inst          968                       # number of ReadCleanReq accesses(hits+misses)
system.l2.ReadCleanReq_accesses::total            970                       # number of ReadCleanReq accesses(hits+misses)
system.l2.ReadCleanReq_miss_rate::.cpu.inst            1                       # miss rate for ReadCleanReq accesses
system.l2.ReadCleanReq_miss_rate::.switch_cpus.inst     0.409091                       # miss rate for ReadCleanReq accesses
system.l2.ReadCleanReq_miss_rate::total      0.410309                       # miss rate for ReadCleanReq accesses
system.l2.ReadCleanReq_avg_miss_latency::.switch_cpus.inst 81689.393939                       # average ReadCleanReq miss latency
system.l2.ReadCleanReq_avg_miss_latency::total 81278.894472                       # average ReadCleanReq miss latency
[...]
system.cpu.itb_walker_cache.tags.tag_accesses            0                       # Number of tag accesses
system.cpu.itb_walker_cache.tags.data_accesses            0                       # Number of data accesses
system.cpu.itb.walker.pwrStateResidencyTicks::UNDEFINED 1801758682000                       # Cumulative time (in ticks) in various power states
system.cpu.dtb_walker_cache.pwrStateResidencyTicks::UNDEFINED 1801758682000                       # Cumulative time (in ticks) in various power states
system.cpu.dtb_walker_cache.blocked_cycles::no_mshrs            0                       # number of cycles access was blocked
system.cpu.dtb_walker_cache.blocked_cycles::no_targets            0                       # number of cycles access was blocked
system.cpu.dtb_walker_cache.blocked::no_mshrs            0                       # number of cycles access was blocked
system.cpu.dtb_walker_cache.blocked::no_targets            0                       # number of cycles access was blocked
system.cpu.dtb_walker_cache.avg_blocked_cycles::no_mshrs          nan                       # average number of cycles each access was blocked
system.cpu.dtb_walker_cache.avg_blocked_cycles::no_targets          nan                       # average number of cycles each access was blocked
system.cpu.dtb_walker_cache.replacements            0                       # number of replacements
system.cpu.dtb_walker_cache.tags.pwrStateResidencyTicks::UNDEFINED 1801758682000                       # Cumulative time (in ticks) in various power states
system.cpu.dtb_walker_cache.tags.tagsinuse            0                       # Cycle average of tags in use
system.cpu.dtb_walker_cache.tags.total_refs            0                       # Total number of references to valid blocks.
system.cpu.dtb_walker_cache.tags.sampled_refs            0                       # Sample count of references to valid blocks.
system.cpu.dtb_walker_cache.tags.avg_refs          nan                       # Average number of references to valid blocks.
system.cpu.dtb_walker_cache.tags.warmup_cycle            0                       # Cycle when the warmup percentage was hit.
system.cpu.dtb_walker_cache.tags.tag_accesses            0                       # Number of tag accesses
system.cpu.dtb_walker_cache.tags.data_accesses            0                       # Number of data accesses
system.cpu.dcache.pwrStateResidencyTicks::UNDEFINED 1801758682000                       # Cumulative time (in ticks) in various power states
system.cpu.dcache.demand_hits::.cpu.data            1                       # number of demand (read+write) hits
system.cpu.dcache.demand_hits::.switch_cpus.data     39224182                       # number of demand (read+write) hits
system.cpu.dcache.demand_hits::total         39224183                       # number of demand (read+write) hits
system.cpu.dcache.overall_hits::.cpu.data            1                       # number of overall hits
system.cpu.dcache.overall_hits::.switch_cpus.data     41040448                       # number of overall hits
system.cpu.dcache.overall_hits::total        41040449                       # number of overall hits
system.cpu.dcache.demand_misses::.cpu.data            2                       # number of demand (read+write) misses
system.cpu.dcache.demand_misses::.switch_cpus.data      1417279                       # number of demand (read+write) misses
system.cpu.dcache.demand_misses::total        1417281                       # number of demand (read+write) misses
system.cpu.dcache.overall_misses::.cpu.data            2                       # number of overall misses
system.cpu.dcache.overall_misses::.switch_cpus.data      1543155                       # number of overall misses
system.cpu.dcache.overall_misses::total       1543157                       # number of overall misses
system.cpu.dcache.demand_miss_latency::.switch_cpus.data  99069463531                       # number of demand (read+write) miss cycles
system.cpu.dcache.demand_miss_latency::total  99069463531                       # number of demand (read+write) miss cycles
system.cpu.dcache.overall_miss_latency::.switch_cpus.data  99069463531                       # number of overall miss cycles
system.cpu.dcache.overall_miss_latency::total  99069463531                       # number of overall miss cycles
system.cpu.dcache.demand_accesses::.cpu.data            3                       # number of demand (read+write) accesses
system.cpu.dcache.demand_accesses::.switch_cpus.data     40641461                       # number of demand (read+write) accesses
system.cpu.dcache.demand_accesses::total     40641464                       # number of demand (read+write) accesses
system.cpu.dcache.overall_accesses::.cpu.data            3                       # number of overall (read+write) accesses
system.cpu.dcache.overall_accesses::.switch_cpus.data     42583603                       # number of overall (read+write) accesses
system.cpu.dcache.overall_accesses::total     42583606                       # number of overall (read+write) accesses
system.cpu.dcache.demand_miss_rate::.cpu.data     0.666667                       # miss rate for demand accesses
system.cpu.dcache.demand_miss_rate::.switch_cpus.data     0.034873                       # miss rate for demand accesses
system.cpu.dcache.demand_miss_rate::total     0.034873                       # miss rate for demand accesses
system.cpu.dcache.overall_miss_rate::.cpu.data     0.666667                       # miss rate for overall accesses
system.cpu.dcache.overall_miss_rate::.switch_cpus.data     0.036238                       # miss rate for overall accesses
system.cpu.dcache.overall_miss_rate::total     0.036238                       # miss rate for overall accesses
system.cpu.dcache.demand_avg_miss_latency::.switch_cpus.data 69901.172268                       # average overall miss latency
system.cpu.dcache.demand_avg_miss_latency::total 69901.073627                       # average overall miss latency
system.cpu.dcache.overall_avg_miss_latency::.switch_cpus.data 64199.295295                       # average overall miss latency
system.cpu.dcache.overall_avg_miss_latency::total 64199.212090                       # average overall miss latency
system.cpu.dcache.blocked_cycles::no_mshrs      9597938                       # number of cycles access was blocked
system.cpu.dcache.blocked_cycles::no_targets        21476                       # number of cycles access was blocked
system.cpu.dcache.blocked::no_mshrs            119437                       # number of cycles access was blocked
system.cpu.dcache.blocked::no_targets             304                       # number of cycles access was blocked
system.cpu.dcache.avg_blocked_cycles::no_mshrs    80.359838                       # average number of cycles each access was blocked
system.cpu.dcache.avg_blocked_cycles::no_targets    70.644737                       # average number of cycles each access was blocked
system.cpu.dcache.writebacks::.writebacks       379924                       # number of writebacks
system.cpu.dcache.writebacks::total            379924                       # number of writebacks
system.cpu.dcache.demand_mshr_hits::.switch_cpus.data       785992                       # number of demand (read+write) MSHR hits
system.cpu.dcache.demand_mshr_hits::total       785992                       # number of demand (read+write) MSHR hits
system.cpu.dcache.overall_mshr_hits::.switch_cpus.data       785992                       # number of overall MSHR hits
system.cpu.dcache.overall_mshr_hits::total       785992                       # number of overall MSHR hits
system.cpu.dcache.demand_mshr_misses::.switch_cpus.data       631287                       # number of demand (read+write) MSHR misses
system.cpu.dcache.demand_mshr_misses::total       631287                       # number of demand (read+write) MSHR misses
system.cpu.dcache.overall_mshr_misses::.switch_cpus.data       692806                       # number of overall MSHR misses
system.cpu.dcache.overall_mshr_misses::total       692806                       # number of overall MSHR misses
system.cpu.dcache.demand_mshr_miss_latency::.switch_cpus.data  46244293531                       # number of demand (read+write) MSHR miss cycles
system.cpu.dcache.demand_mshr_miss_latency::total  46244293531                       # number of demand (read+write) MSHR miss cycles
system.cpu.dcache.overall_mshr_miss_latency::.switch_cpus.data  51919836031                       # number of overall MSHR miss cycles
system.cpu.dcache.overall_mshr_miss_latency::total  51919836031                       # number of overall MSHR miss cycles
system.cpu.dcache.demand_mshr_miss_rate::.switch_cpus.data     0.015533                       # mshr miss rate for demand accesses
system.cpu.dcache.demand_mshr_miss_rate::total     0.015533                       # mshr miss rate for demand accesses
system.cpu.dcache.overall_mshr_miss_rate::.switch_cpus.data     0.016269                       # mshr miss rate for overall accesses
system.cpu.dcache.overall_mshr_miss_rate::total     0.016269                       # mshr miss rate for overall accesses
system.cpu.dcache.demand_avg_mshr_miss_latency::.switch_cpus.data 73253.993082                       # average overall mshr miss latency
system.cpu.dcache.demand_avg_mshr_miss_latency::total 73253.993082                       # average overall mshr miss latency
system.cpu.dcache.overall_avg_mshr_miss_latency::.switch_cpus.data 74941.377573                       # average overall mshr miss latency
system.cpu.dcache.overall_avg_mshr_miss_latency::total 74941.377573                       # average overall mshr miss latency
system.cpu.dcache.replacements                 691784                       # number of replacements
system.cpu.dcache.ReadReq_hits::.cpu.data            1                       # number of ReadReq hits
system.cpu.dcache.ReadReq_hits::.switch_cpus.data     30718327                       # number of ReadReq hits
system.cpu.dcache.ReadReq_hits::total        30718328                       # number of ReadReq hits
system.cpu.dcache.ReadReq_misses::.cpu.data            2                       # number of ReadReq misses
system.cpu.dcache.ReadReq_misses::.switch_cpus.data      1128350                       # number of ReadReq misses
system.cpu.dcache.ReadReq_misses::total       1128352                       # number of ReadReq misses
system.cpu.dcache.ReadReq_miss_latency::.switch_cpus.data  76443202500                       # number of ReadReq miss cycles
system.cpu.dcache.ReadReq_miss_latency::total  76443202500                       # number of ReadReq miss cycles
system.cpu.dcache.ReadReq_accesses::.cpu.data            3                       # number of ReadReq accesses(hits+misses)
system.cpu.dcache.ReadReq_accesses::.switch_cpus.data     31846677                       # number of ReadReq accesses(hits+misses)
system.cpu.dcache.ReadReq_accesses::total     31846680                       # number of ReadReq accesses(hits+misses)
system.cpu.dcache.ReadReq_miss_rate::.cpu.data     0.666667                       # miss rate for ReadReq accesses
system.cpu.dcache.ReadReq_miss_rate::.switch_cpus.data     0.035431                       # miss rate for ReadReq accesses
system.cpu.dcache.ReadReq_miss_rate::total     0.035431                       # miss rate for ReadReq accesses
system.cpu.dcache.ReadReq_avg_miss_latency::.switch_cpus.data 67747.775513                       # average ReadReq miss latency
system.cpu.dcache.ReadReq_avg_miss_latency::total 67747.655430                       # average ReadReq miss latency
system.cpu.dcache.ReadReq_mshr_hits::.switch_cpus.data       785923                       # number of ReadReq MSHR hits
system.cpu.dcache.ReadReq_mshr_hits::total       785923                       # number of ReadReq MSHR hits
system.cpu.dcache.ReadReq_mshr_misses::.switch_cpus.data       342427                       # number of ReadReq MSHR misses
system.cpu.dcache.ReadReq_mshr_misses::total       342427                       # number of ReadReq MSHR misses
system.cpu.dcache.ReadReq_mshr_miss_latency::.switch_cpus.data  23908201500                       # number of ReadReq MSHR miss cycles
system.cpu.dcache.ReadReq_mshr_miss_latency::total  23908201500                       # number of ReadReq MSHR miss cycles
system.cpu.dcache.ReadReq_mshr_miss_rate::.switch_cpus.data     0.010752                       # mshr miss rate for ReadReq accesses
system.cpu.dcache.ReadReq_mshr_miss_rate::total     0.010752                       # mshr miss rate for ReadReq accesses
system.cpu.dcache.ReadReq_avg_mshr_miss_latency::.switch_cpus.data 69819.849194                       # average ReadReq mshr miss latency
system.cpu.dcache.ReadReq_avg_mshr_miss_latency::total 69819.849194                       # average ReadReq mshr miss latency
system.cpu.dcache.WriteReq_hits::.switch_cpus.data      8505855                       # number of WriteReq hits
system.cpu.dcache.WriteReq_hits::total        8505855                       # number of WriteReq hits
system.cpu.dcache.WriteReq_misses::.switch_cpus.data       288929                       # number of WriteReq misses
system.cpu.dcache.WriteReq_misses::total       288929                       # number of WriteReq misses
system.cpu.dcache.WriteReq_miss_latency::.switch_cpus.data  22626261031                       # number of WriteReq miss cycles
system.cpu.dcache.WriteReq_miss_latency::total  22626261031                       # number of WriteReq miss cycles
system.cpu.dcache.WriteReq_accesses::.switch_cpus.data      8794784                       # number of WriteReq accesses(hits+misses)
system.cpu.dcache.WriteReq_accesses::total      8794784                       # number of WriteReq accesses(hits+misses)
system.cpu.dcache.WriteReq_miss_rate::.switch_cpus.data     0.032852                       # miss rate for WriteReq accesses
system.cpu.dcache.WriteReq_miss_rate::total     0.032852                       # miss rate for WriteReq accesses
system.cpu.dcache.WriteReq_avg_miss_latency::.switch_cpus.data 78310.799646                       # average WriteReq miss latency
system.cpu.dcache.WriteReq_avg_miss_latency::total 78310.799646                       # average WriteReq miss latency
system.cpu.dcache.WriteReq_mshr_hits::.switch_cpus.data           69                       # number of WriteReq MSHR hits
system.cpu.dcache.WriteReq_mshr_hits::total           69                       # number of WriteReq MSHR hits
system.cpu.dcache.WriteReq_mshr_misses::.switch_cpus.data       288860                       # number of WriteReq MSHR misses
system.cpu.dcache.WriteReq_mshr_misses::total       288860                       # number of WriteReq MSHR misses
system.cpu.dcache.WriteReq_mshr_miss_latency::.switch_cpus.data  22336092031                       # number of WriteReq MSHR miss cycles
system.cpu.dcache.WriteReq_mshr_miss_latency::total  22336092031                       # number of WriteReq MSHR miss cycles
system.cpu.dcache.WriteReq_mshr_miss_rate::.switch_cpus.data     0.032844                       # mshr miss rate for WriteReq accesses
system.cpu.dcache.WriteReq_mshr_miss_rate::total     0.032844                       # mshr miss rate for WriteReq accesses
system.cpu.dcache.WriteReq_avg_mshr_miss_latency::.switch_cpus.data 77324.974143                       # average WriteReq mshr miss latency
system.cpu.dcache.WriteReq_avg_mshr_miss_latency::total 77324.974143                       # average WriteReq mshr miss latency
system.cpu.dcache.SoftPFReq_hits::.switch_cpus.data      1816266                       # number of SoftPFReq hits
system.cpu.dcache.SoftPFReq_hits::total       1816266                       # number of SoftPFReq hits
system.cpu.dcache.SoftPFReq_misses::.switch_cpus.data       125876                       # number of SoftPFReq misses
system.cpu.dcache.SoftPFReq_misses::total       125876                       # number of SoftPFReq misses
system.cpu.dcache.SoftPFReq_accesses::.switch_cpus.data      1942142                       # number of SoftPFReq accesses(hits+misses)
system.cpu.dcache.SoftPFReq_accesses::total      1942142                       # number of SoftPFReq accesses(hits+misses)
system.cpu.dcache.SoftPFReq_miss_rate::.switch_cpus.data     0.064813                       # miss rate for SoftPFReq accesses
system.cpu.dcache.SoftPFReq_miss_rate::total     0.064813                       # miss rate for SoftPFReq accesses
system.cpu.dcache.SoftPFReq_mshr_misses::.switch_cpus.data        61519                       # number of SoftPFReq MSHR misses
system.cpu.dcache.SoftPFReq_mshr_misses::total        61519                       # number of SoftPFReq MSHR misses
system.cpu.dcache.SoftPFReq_mshr_miss_latency::.switch_cpus.data   5675542500                       # number of SoftPFReq MSHR miss cycles
system.cpu.dcache.SoftPFReq_mshr_miss_latency::total   5675542500                       # number of SoftPFReq MSHR miss cycles
system.cpu.dcache.SoftPFReq_mshr_miss_rate::.switch_cpus.data     0.031676                       # mshr miss rate for SoftPFReq accesses
system.cpu.dcache.SoftPFReq_mshr_miss_rate::total     0.031676                       # mshr miss rate for SoftPFReq accesses
system.cpu.dcache.SoftPFReq_avg_mshr_miss_latency::.switch_cpus.data 92256.741820                       # average SoftPFReq mshr miss latency
system.cpu.dcache.SoftPFReq_avg_mshr_miss_latency::total 92256.741820                       # average SoftPFReq mshr miss latency
system.cpu.dcache.tags.pwrStateResidencyTicks::UNDEFINED 1801758682000                       # Cumulative time (in ticks) in various power states
system.cpu.dcache.tags.tagsinuse            27.890603                       # Cycle average of tags in use
system.cpu.dcache.tags.total_refs            41733257                       # Total number of references to valid blocks.
system.cpu.dcache.tags.sampled_refs            692808                       # Sample count of references to valid blocks.
system.cpu.dcache.tags.avg_refs             60.237839                       # Average number of references to valid blocks.
system.cpu.dcache.tags.warmup_cycle      1752622860500                       # Cycle when the warmup percentage was hit.
system.cpu.dcache.tags.occ_blocks::.cpu.data     0.002223                       # Average occupied blocks per requestor
system.cpu.dcache.tags.occ_blocks::.switch_cpus.data    27.888379                       # Average occupied blocks per requestor
system.cpu.dcache.tags.occ_percent::.cpu.data     0.000002                       # Average percentage of cache occupancy
system.cpu.dcache.tags.occ_percent::.switch_cpus.data     0.027235                       # Average percentage of cache occupancy
system.cpu.dcache.tags.occ_percent::total     0.027237                       # Average percentage of cache occupancy
system.cpu.dcache.tags.occ_task_id_blocks::1024         1024                       # Occupied blocks per task id
system.cpu.dcache.tags.age_task_id_blocks_1024::0          159                       # Occupied blocks per task id
system.cpu.dcache.tags.age_task_id_blocks_1024::1          802                       # Occupied blocks per task id
system.cpu.dcache.tags.age_task_id_blocks_1024::2           62                       # Occupied blocks per task id
system.cpu.dcache.tags.age_task_id_blocks_1024::3            1                       # Occupied blocks per task id
system.cpu.dcache.tags.occ_task_id_percent::1024            1                       # Percentage of cache occupancy per task id
system.cpu.dcache.tags.tag_accesses          85860020                       # Number of tag accesses
system.cpu.dcache.tags.data_accesses         85860020                       # Number of data accesses

---------- End Simulation Statistics   ----------
