
---------- Begin Simulation Statistics ----------
final_tick                               270776492564000                       # Number of ticks from beginning of simulation (restored from checkpoints and never reset)
host_inst_rate                                  41768                       # Simulator instruction rate (inst/s)
host_mem_usage                                 804436                       # Number of bytes of host memory used
host_op_rate                                    69751                       # Simulator op (including micro ops) rate (op/s)
host_seconds                                   239.42                       # Real time elapsed on the host
host_tick_rate                               38478566                       # Simulator tick rate (ticks/s)
sim_freq                                 1000000000000                       # Frequency of simulated ticks
sim_insts                                    10000010                       # Number of instructions simulated
sim_ops                                      16699646                       # Number of ops (including micro ops) simulated
sim_seconds                                  0.009213                       # Number of seconds simulated
sim_ticks                                  9212510250                       # Number of ticks simulated
system.cpu.Branches                                 1                       # Number of branches fetched
system.cpu.committedInsts                           7                       # Number of instructions committed
system.cpu.committedOps                            18                       # Number of ops (including micro ops) committed
system.cpu.dtb.rdAccesses                           5                       # TLB accesses on read requests
system.cpu.dtb.rdMisses                             0                       # TLB misses on read requests
system.cpu.dtb.wrAccesses                           1                       # TLB accesses on write requests
system.cpu.dtb.wrMisses                             0                       # TLB misses on write requests
system.cpu.idle_fraction                            0                       # Percentage of idle cycles
system.cpu.itb.rdAccesses                           0                       # TLB accesses on read requests
system.cpu.itb.rdMisses                             0                       # TLB misses on read requests
system.cpu.itb.wrAccesses                           9                       # TLB accesses on write requests
system.cpu.itb.wrMisses                             0                       # TLB misses on write requests
system.cpu.not_idle_fraction                        1                       # Percentage of non-idle cycles
system.cpu.numCycles                               20                       # number of cpu cycles simulated
system.cpu.numWorkItemsCompleted                    0                       # number of work items this cpu completed
system.cpu.numWorkItemsStarted                      0                       # number of work items this cpu started
system.cpu.num_busy_cycles                         20                       # Number of busy cycles
system.cpu.num_cc_register_writes                   2                       # number of times the CC registers were written
system.cpu.num_conditional_control_insts            0                       # number of instructions that are conditional controls
system.cpu.num_fp_alu_accesses                      0                       # Number of float alu accesses
system.cpu.num_fp_insts                             0                       # number of float instructions
system.cpu.num_fp_register_reads                    0                       # number of times the floating registers were read
system.cpu.num_fp_register_writes                   0                       # number of times the floating registers were written
system.cpu.num_func_calls                           1                       # number of times a function call or return occured
system.cpu.num_idle_cycles                          0                       # Number of idle cycles
system.cpu.num_int_alu_accesses                    18                       # Number of integer alu accesses
system.cpu.num_int_insts                           18                       # number of integer instructions
system.cpu.num_int_register_reads                  40                       # number of times the integer registers were read
system.cpu.num_int_register_writes                 16                       # number of times the integer registers were written
system.cpu.num_load_insts                           5                       # Number of load instructions
system.cpu.num_mem_refs                             6                       # number of memory refs
system.cpu.num_store_insts                          1                       # Number of store instructions
system.cpu.num_vec_alu_accesses                     0                       # Number of vector alu accesses
system.cpu.num_vec_insts                            0                       # number of vector instructions
system.cpu.num_vec_register_reads                   0                       # number of times the vector registers were read
system.cpu.num_vec_register_writes                  0                       # number of times the vector registers were written
system.cpu.op_class::No_OpClass                     0      0.00%      0.00% # Class of executed instruction
system.cpu.op_class::IntAlu                        12     66.67%     66.67% # Class of executed instruction
system.cpu.op_class::IntMult                        0      0.00%     66.67% # Class of executed instruction
system.cpu.op_class::IntDiv                         0      0.00%     66.67% # Class of executed instruction
system.cpu.op_class::FloatAdd                       0      0.00%     66.67% # Class of executed instruction
system.cpu.op_class::FloatCmp                       0      0.00%     66.67% # Class of executed instruction
system.cpu.op_class::FloatCvt                       0      0.00%     66.67% # Class of executed instruction
system.cpu.op_class::FloatMult                      0      0.00%     66.67% # Class of executed instruction
system.cpu.op_class::FloatMultAcc                   0      0.00%     66.67% # Class of executed instruction
system.cpu.op_class::FloatDiv                       0      0.00%     66.67% # Class of executed instruction
system.cpu.op_class::FloatMisc                      0      0.00%     66.67% # Class of executed instruction
system.cpu.op_class::FloatSqrt                      0      0.00%     66.67% # Class of executed instruction
system.cpu.op_class::SimdAdd                        0      0.00%     66.67% # Class of executed instruction
system.cpu.op_class::SimdAddAcc                     0      0.00%     66.67% # Class of executed instruction
system.cpu.op_class::SimdAlu                        0      0.00%     66.67% # Class of executed instruction
system.cpu.op_class::SimdCmp                        0      0.00%     66.67% # Class of executed instruction
system.cpu.op_class::SimdCvt                        0      0.00%     66.67% # Class of executed instruction
system.cpu.op_class::SimdMisc                       0      0.00%     66.67% # Class of executed instruction
system.cpu.op_class::SimdMult                       0      0.00%     66.67% # Class of executed instruction
system.cpu.op_class::SimdMultAcc                    0      0.00%     66.67% # Class of executed instruction
system.cpu.op_class::SimdShift                      0      0.00%     66.67% # Class of executed instruction
system.cpu.op_class::SimdShiftAcc                   0      0.00%     66.67% # Class of executed instruction
system.cpu.op_class::SimdDiv                        0      0.00%     66.67% # Class of executed instruction
system.cpu.op_class::SimdSqrt                       0      0.00%     66.67% # Class of executed instruction
system.cpu.op_class::SimdFloatAdd                   0      0.00%     66.67% # Class of executed instruction
system.cpu.op_class::SimdFloatAlu                   0      0.00%     66.67% # Class of executed instruction
system.cpu.op_class::SimdFloatCmp                   0      0.00%     66.67% # Class of executed instruction
system.cpu.op_class::SimdFloatCvt                   0      0.00%     66.67% # Class of executed instruction
system.cpu.op_class::SimdFloatDiv                   0      0.00%     66.67% # Class of executed instruction
system.cpu.op_class::SimdFloatMisc                  0      0.00%     66.67% # Class of executed instruction
system.cpu.op_class::SimdFloatMult                  0      0.00%     66.67% # Class of executed instruction
system.cpu.op_class::SimdFloatMultAcc               0      0.00%     66.67% # Class of executed instruction
system.cpu.op_class::SimdFloatSqrt                  0      0.00%     66.67% # Class of executed instruction
system.cpu.op_class::SimdReduceAdd                  0      0.00%     66.67% # Class of executed instruction
system.cpu.op_class::SimdReduceAlu                  0      0.00%     66.67% # Class of executed instruction
system.cpu.op_class::SimdReduceCmp                  0      0.00%     66.67% # Class of executed instruction
system.cpu.op_class::SimdFloatReduceAdd             0      0.00%     66.67% # Class of executed instruction
system.cpu.op_class::SimdFloatReduceCmp             0      0.00%     66.67% # Class of executed instruction
system.cpu.op_class::SimdAes                        0      0.00%     66.67% # Class of executed instruction
system.cpu.op_class::SimdAesMix                     0      0.00%     66.67% # Class of executed instruction
system.cpu.op_class::SimdSha1Hash                   0      0.00%     66.67% # Class of executed instruction
system.cpu.op_class::SimdSha1Hash2                  0      0.00%     66.67% # Class of executed instruction
system.cpu.op_class::SimdSha256Hash                 0      0.00%     66.67% # Class of executed instruction
system.cpu.op_class::SimdSha256Hash2                0      0.00%     66.67% # Class of executed instruction
system.cpu.op_class::SimdShaSigma2                  0      0.00%     66.67% # Class of executed instruction
system.cpu.op_class::SimdShaSigma3                  0      0.00%     66.67% # Class of executed instruction
system.cpu.op_class::SimdPredAlu                    0      0.00%     66.67% # Class of executed instruction
system.cpu.op_class::MemRead                        5     27.78%     94.44% # Class of executed instruction
system.cpu.op_class::MemWrite                       1      5.56%    100.00% # Class of executed instruction
system.cpu.op_class::FloatMemRead                   0      0.00%    100.00% # Class of executed instruction
system.cpu.op_class::FloatMemWrite                  0      0.00%    100.00% # Class of executed instruction
system.cpu.op_class::IprAccess                      0      0.00%    100.00% # Class of executed instruction
system.cpu.op_class::InstPrefetch                   0      0.00%    100.00% # Class of executed instruction
system.cpu.op_class::total                         18                       # Class of executed instruction
system.cpu.workload.numSyscalls                     0                       # Number of system calls
system.membus.snoop_filter.hit_multi_requests            0                       # Number of requests hitting in the snoop filter with multiple (>1) holders of the requested data.
system.membus.snoop_filter.hit_multi_snoops            0                       # Number of snoops hitting in the snoop filter with multiple (>1) holders of the requested data.
system.membus.snoop_filter.hit_single_requests       165651                       # Number of requests hitting in the snoop filter with a single holder of the requested data.
system.membus.snoop_filter.hit_single_snoops            0                       # Number of snoops hitting in the snoop filter with a single holder of the requested data.
system.membus.snoop_filter.tot_requests        334131                       # Total number of requests made to the snoop filter.
system.membus.snoop_filter.tot_snoops               0                       # Total number of snoops made to the snoop filter.
system.switch_cpus.branchPred.BTBCorrect            0                       # Number of correct BTB predictions (this stat may not work properly.
system.switch_cpus.branchPred.BTBHitPct      0.000000                       # BTB Hit Percentage
system.switch_cpus.branchPred.BTBHits               0                       # Number of BTB hits
system.switch_cpus.branchPred.BTBLookups      1228607                       # Number of BTB lookups
system.switch_cpus.branchPred.RASInCorrect           33                       # Number of incorrect RAS predictions.
system.switch_cpus.branchPred.condIncorrect        60507                       # Number of conditional branches incorrect
system.switch_cpus.branchPred.condPredicted      1261517                       # Number of conditional branches predicted
system.switch_cpus.branchPred.indirectHits       943702                       # Number of indirect target hits.
system.switch_cpus.branchPred.indirectLookups      1228607                       # Number of indirect predictor lookups.
system.switch_cpus.branchPred.indirectMisses       284905                       # Number of indirect misses.
system.switch_cpus.branchPred.lookups         1332565                       # Number of BP lookups
system.switch_cpus.branchPred.usedRAS           35282                       # Number of times the RAS was used to get a target.
system.switch_cpus.branchPredindirectMispredicted        12602                       # Number of mispredicted indirect branches.
system.switch_cpus.cc_regfile_reads           6148195                       # number of cc regfile reads
system.switch_cpus.cc_regfile_writes          4088868                       # number of cc regfile writes
system.switch_cpus.commit.amos                      0                       # Number of atomic instructions committed
system.switch_cpus.commit.branchMispredicts        60578                       # The number of times a branch was mispredicted
system.switch_cpus.commit.branches            1012410                       # Number of branches committed
system.switch_cpus.commit.bw_lim_events       1374143                       # number cycles where commit BW limit reached
system.switch_cpus.commit.commitSquashedInsts      2214053                       # The number of squashed insts skipped by commit
system.switch_cpus.commit.committedInsts     10000003                       # Number of instructions committed
system.switch_cpus.commit.committedOps       16699628                       # Number of ops (including micro ops) committed
system.switch_cpus.commit.committed_per_cycle::samples     18080636                       # Number of insts commited each cycle
system.switch_cpus.commit.committed_per_cycle::mean     0.923620                       # Number of insts commited each cycle
system.switch_cpus.commit.committed_per_cycle::stdev     2.287223                       # Number of insts commited each cycle
system.switch_cpus.commit.committed_per_cycle::underflows            0      0.00%      0.00% # Number of insts commited each cycle
system.switch_cpus.commit.committed_per_cycle::0     14596925     80.73%     80.73% # Number of insts commited each cycle
system.switch_cpus.commit.committed_per_cycle::1       947008      5.24%     85.97% # Number of insts commited each cycle
system.switch_cpus.commit.committed_per_cycle::2       120186      0.66%     86.63% # Number of insts commited each cycle
system.switch_cpus.commit.committed_per_cycle::3       190084      1.05%     87.69% # Number of insts commited each cycle
system.switch_cpus.commit.committed_per_cycle::4       479944      2.65%     90.34% # Number of insts commited each cycle
system.switch_cpus.commit.committed_per_cycle::5       254374      1.41%     91.75% # Number of insts commited each cycle
system.switch_cpus.commit.committed_per_cycle::6        68598      0.38%     92.13% # Number of insts commited each cycle
system.switch_cpus.commit.committed_per_cycle::7        49374      0.27%     92.40% # Number of insts commited each cycle
system.switch_cpus.commit.committed_per_cycle::8      1374143      7.60%    100.00% # Number of insts commited each cycle
system.switch_cpus.commit.committed_per_cycle::overflows            0      0.00%    100.00% # Number of insts commited each cycle
system.switch_cpus.commit.committed_per_cycle::min_value            0                       # Number of insts commited each cycle
system.switch_cpus.commit.committed_per_cycle::max_value            8                       # Number of insts commited each cycle
system.switch_cpus.commit.committed_per_cycle::total     18080636                       # Number of insts commited each cycle
system.switch_cpus.commit.fp_insts            9250008                       # Number of committed floating point instructions.
system.switch_cpus.commit.function_calls        18108                       # Number of function calls committed.
system.switch_cpus.commit.int_insts           9386149                       # Number of committed integer instructions.
system.switch_cpus.commit.loads               2651089                       # Number of loads committed
system.switch_cpus.commit.membars                   0                       # Number of memory barriers committed
system.switch_cpus.commit.op_class_0::No_OpClass        28068      0.17%      0.17% # Class of committed instruction
system.switch_cpus.commit.op_class_0::IntAlu      7077496     42.38%     42.55% # Class of committed instruction
system.switch_cpus.commit.op_class_0::IntMult           15      0.00%     42.55% # Class of committed instruction
system.switch_cpus.commit.op_class_0::IntDiv           77      0.00%     42.55% # Class of committed instruction
system.switch_cpus.commit.op_class_0::FloatAdd       834706      5.00%     47.55% # Class of committed instruction
system.switch_cpus.commit.op_class_0::FloatCmp            0      0.00%     47.55% # Class of committed instruction
system.switch_cpus.commit.op_class_0::FloatCvt            0      0.00%     47.55% # Class of committed instruction
system.switch_cpus.commit.op_class_0::FloatMult            0      0.00%     47.55% # Class of committed instruction
system.switch_cpus.commit.op_class_0::FloatMultAcc            0      0.00%     47.55% # Class of committed instruction
system.switch_cpus.commit.op_class_0::FloatDiv            0      0.00%     47.55% # Class of committed instruction
system.switch_cpus.commit.op_class_0::FloatMisc            0      0.00%     47.55% # Class of committed instruction
system.switch_cpus.commit.op_class_0::FloatSqrt            0      0.00%     47.55% # Class of committed instruction
system.switch_cpus.commit.op_class_0::SimdAdd            0      0.00%     47.55% # Class of committed instruction
system.switch_cpus.commit.op_class_0::SimdAddAcc            0      0.00%     47.55% # Class of committed instruction
system.switch_cpus.commit.op_class_0::SimdAlu      1472440      8.82%     56.37% # Class of committed instruction
system.switch_cpus.commit.op_class_0::SimdCmp            0      0.00%     56.37% # Class of committed instruction
system.switch_cpus.commit.op_class_0::SimdCvt            6      0.00%     56.37% # Class of committed instruction
system.switch_cpus.commit.op_class_0::SimdMisc        40222      0.24%     56.61% # Class of committed instruction
system.switch_cpus.commit.op_class_0::SimdMult            0      0.00%     56.61% # Class of committed instruction
system.switch_cpus.commit.op_class_0::SimdMultAcc            0      0.00%     56.61% # Class of committed instruction
system.switch_cpus.commit.op_class_0::SimdShift            0      0.00%     56.61% # Class of committed instruction
system.switch_cpus.commit.op_class_0::SimdShiftAcc            0      0.00%     56.61% # Class of committed instruction
system.switch_cpus.commit.op_class_0::SimdDiv            0      0.00%     56.61% # Class of committed instruction
system.switch_cpus.commit.op_class_0::SimdSqrt            0      0.00%     56.61% # Class of committed instruction
system.switch_cpus.commit.op_class_0::SimdFloatAdd      1392117      8.34%     64.94% # Class of committed instruction
system.switch_cpus.commit.op_class_0::SimdFloatAlu            0      0.00%     64.94% # Class of committed instruction
system.switch_cpus.commit.op_class_0::SimdFloatCmp        20118      0.12%     65.06% # Class of committed instruction
system.switch_cpus.commit.op_class_0::SimdFloatCvt      1492478      8.94%     74.00% # Class of committed instruction
system.switch_cpus.commit.op_class_0::SimdFloatDiv            0      0.00%     74.00% # Class of committed instruction
system.switch_cpus.commit.op_class_0::SimdFloatMisc            0      0.00%     74.00% # Class of committed instruction
system.switch_cpus.commit.op_class_0::SimdFloatMult      1432276      8.58%     82.58% # Class of committed instruction
system.switch_cpus.commit.op_class_0::SimdFloatMultAcc            0      0.00%     82.58% # Class of committed instruction
system.switch_cpus.commit.op_class_0::SimdFloatSqrt            0      0.00%     82.58% # Class of committed instruction
system.switch_cpus.commit.op_class_0::SimdReduceAdd            0      0.00%     82.58% # Class of committed instruction
system.switch_cpus.commit.op_class_0::SimdReduceAlu            0      0.00%     82.58% # Class of committed instruction
system.switch_cpus.commit.op_class_0::SimdReduceCmp            0      0.00%     82.58% # Class of committed instruction
system.switch_cpus.commit.op_class_0::SimdFloatReduceAdd            0      0.00%     82.58% # Class of committed instruction
system.switch_cpus.commit.op_class_0::SimdFloatReduceCmp            0      0.00%     82.58% # Class of committed instruction
system.switch_cpus.commit.op_class_0::SimdAes            0      0.00%     82.58% # Class of committed instruction
system.switch_cpus.commit.op_class_0::SimdAesMix            0      0.00%     82.58% # Class of committed instruction
system.switch_cpus.commit.op_class_0::SimdSha1Hash            0      0.00%     82.58% # Class of committed instruction
system.switch_cpus.commit.op_class_0::SimdSha1Hash2            0      0.00%     82.58% # Class of committed instruction
system.switch_cpus.commit.op_class_0::SimdSha256Hash            0      0.00%     82.58% # Class of committed instruction
system.switch_cpus.commit.op_class_0::SimdSha256Hash2            0      0.00%     82.58% # Class of committed instruction
system.switch_cpus.commit.op_class_0::SimdShaSigma2            0      0.00%     82.58% # Class of committed instruction
system.switch_cpus.commit.op_class_0::SimdShaSigma3            0      0.00%     82.58% # Class of committed instruction
system.switch_cpus.commit.op_class_0::SimdPredAlu            0      0.00%     82.58% # Class of committed instruction
system.switch_cpus.commit.op_class_0::MemRead       789848      4.73%     87.31% # Class of committed instruction
system.switch_cpus.commit.op_class_0::MemWrite       194915      1.17%     88.47% # Class of committed instruction
system.switch_cpus.commit.op_class_0::FloatMemRead      1861241     11.15%     99.62% # Class of committed instruction
system.switch_cpus.commit.op_class_0::FloatMemWrite        63605      0.38%    100.00% # Class of committed instruction
system.switch_cpus.commit.op_class_0::IprAccess            0      0.00%    100.00% # Class of committed instruction
system.switch_cpus.commit.op_class_0::InstPrefetch            0      0.00%    100.00% # Class of committed instruction
system.switch_cpus.commit.op_class_0::total     16699628                       # Class of committed instruction
system.switch_cpus.commit.refs                2909609                       # Number of memory references committed
system.switch_cpus.commit.swp_count                 0                       # Number of s/w prefetches committed
system.switch_cpus.commit.vec_insts                 0                       # Number of committed Vector instructions.
system.switch_cpus.committedInsts            10000003                       # Number of Instructions Simulated
system.switch_cpus.committedOps              16699628                       # Number of Ops (including micro ops) Simulated
system.switch_cpus.cpi                       1.842499                       # CPI: Cycles Per Instruction
system.switch_cpus.cpi_total                 1.842499                       # CPI: Total CPI of All Threads
system.switch_cpus.decode.BlockedCycles      14551736                       # Number of cycles decode is blocked
system.switch_cpus.decode.DecodedInsts       19653678                       # Number of instructions handled by decode
system.switch_cpus.decode.IdleCycles          1009830                       # Number of cycles decode is idle
system.switch_cpus.decode.RunCycles           1892236                       # Number of cycles decode is running
system.switch_cpus.decode.SquashCycles          60761                       # Number of cycles decode is squashing
system.switch_cpus.decode.UnblockCycles        878635                       # Number of cycles decode is unblocking
system.switch_cpus.dtb.rdAccesses             3019668                       # TLB accesses on read requests
system.switch_cpus.dtb.rdMisses                 10971                       # TLB misses on read requests
system.switch_cpus.dtb.wrAccesses              287921                       # TLB accesses on write requests
system.switch_cpus.dtb.wrMisses                   607                       # TLB misses on write requests
system.switch_cpus.fetch.Branches             1332565                       # Number of branches that fetch encountered
system.switch_cpus.fetch.CacheLines           1496293                       # Number of cache lines fetched
system.switch_cpus.fetch.Cycles              16787002                       # Number of cycles fetch has run and was not squashing or blocked
system.switch_cpus.fetch.IcacheSquashes         12374                       # Number of outstanding Icache misses that were squashed
system.switch_cpus.fetch.Insts               12416455                       # Number of instructions fetch has processed
system.switch_cpus.fetch.MiscStallCycles           66                       # Number of cycles fetch has spent waiting on interrupts, or bad addresses, or out of MSHRs
system.switch_cpus.fetch.PendingTrapStallCycles         1756                       # Number of stall cycles due to pending traps
system.switch_cpus.fetch.SquashCycles          121522                       # Number of cycles fetch has spent squashing
system.switch_cpus.fetch.branchRate          0.072324                       # Number of branch fetches per cycle
system.switch_cpus.fetch.icacheStallCycles      1543614                       # Number of cycles fetch is stalled on an Icache miss
system.switch_cpus.fetch.predictedBranches       978984                       # Number of branches that fetch has predicted taken
system.switch_cpus.fetch.rate                0.673892                       # Number of inst fetches per cycle
system.switch_cpus.fetch.rateDist::samples     18393199                       # Number of instructions fetched each cycle (Total)
system.switch_cpus.fetch.rateDist::mean      1.131525                       # Number of instructions fetched each cycle (Total)
system.switch_cpus.fetch.rateDist::stdev     2.553097                       # Number of instructions fetched each cycle (Total)
system.switch_cpus.fetch.rateDist::underflows            0      0.00%      0.00% # Number of instructions fetched each cycle (Total)
system.switch_cpus.fetch.rateDist::0         14850687     80.74%     80.74% # Number of instructions fetched each cycle (Total)
system.switch_cpus.fetch.rateDist::1           312720      1.70%     82.44% # Number of instructions fetched each cycle (Total)
system.switch_cpus.fetch.rateDist::2           189237      1.03%     83.47% # Number of instructions fetched each cycle (Total)
system.switch_cpus.fetch.rateDist::3           216270      1.18%     84.64% # Number of instructions fetched each cycle (Total)
system.switch_cpus.fetch.rateDist::4           330745      1.80%     86.44% # Number of instructions fetched each cycle (Total)
system.switch_cpus.fetch.rateDist::5           278235      1.51%     87.96% # Number of instructions fetched each cycle (Total)
system.switch_cpus.fetch.rateDist::6           431119      2.34%     90.30% # Number of instructions fetched each cycle (Total)
system.switch_cpus.fetch.rateDist::7           101995      0.55%     90.85% # Number of instructions fetched each cycle (Total)
system.switch_cpus.fetch.rateDist::8          1682191      9.15%    100.00% # Number of instructions fetched each cycle (Total)
system.switch_cpus.fetch.rateDist::overflows            0      0.00%    100.00% # Number of instructions fetched each cycle (Total)
system.switch_cpus.fetch.rateDist::min_value            0                       # Number of instructions fetched each cycle (Total)
system.switch_cpus.fetch.rateDist::max_value            8                       # Number of instructions fetched each cycle (Total)
system.switch_cpus.fetch.rateDist::total     18393199                       # Number of instructions fetched each cycle (Total)
system.switch_cpus.fp_regfile_reads          16017710                       # number of floating regfile reads
system.switch_cpus.fp_regfile_writes          9300060                       # number of floating regfile writes
system.switch_cpus.idleCycles                   31801                       # Total number of cycles that the CPU has spent unscheduled due to idling
system.switch_cpus.iew.branchMispredicts        67670                       # Number of branch mispredicts detected at execute
system.switch_cpus.iew.exec_branches          1088812                       # Number of branches executed
system.switch_cpus.iew.exec_nop                     0                       # number of nop insts executed
system.switch_cpus.iew.exec_rate             0.984840                       # Inst execution rate
system.switch_cpus.iew.exec_refs              3341387                       # number of memory reference insts executed
system.switch_cpus.iew.exec_stores             287910                       # Number of stores executed
system.switch_cpus.iew.exec_swp                     0                       # number of swp insts executed
system.switch_cpus.iew.iewBlockCycles         7524074                       # Number of cycles IEW is blocking
system.switch_cpus.iew.iewDispLoadInsts       3072226                       # Number of dispatched load instructions
system.switch_cpus.iew.iewDispNonSpecInsts            0                       # Number of dispatched non-speculative instructions
system.switch_cpus.iew.iewDispSquashedInsts         4816                       # Number of squashed instructions skipped by dispatch
system.switch_cpus.iew.iewDispStoreInsts       324305                       # Number of dispatched store instructions
system.switch_cpus.iew.iewDispatchedInsts     18911379                       # Number of instructions dispatched to IQ
system.switch_cpus.iew.iewExecLoadInsts       3053477                       # Number of load instructions executed
system.switch_cpus.iew.iewExecSquashedInsts       109971                       # Number of squashed instructions skipped in execute
system.switch_cpus.iew.iewExecutedInsts      18145676                       # Number of executed instructions
system.switch_cpus.iew.iewIQFullEvents          81228                       # Number of times the IQ has become full, causing a stall
system.switch_cpus.iew.iewIdleCycles                0                       # Number of cycles IEW is idle
system.switch_cpus.iew.iewLSQFullEvents        749485                       # Number of times the LSQ has become full, causing a stall
system.switch_cpus.iew.iewSquashCycles          60761                       # Number of cycles IEW is squashing
system.switch_cpus.iew.iewUnblockCycles        879727                       # Number of cycles IEW is unblocking
system.switch_cpus.iew.lsq.thread0.blockedLoads            0                       # Number of blocked loads due to partial load-store forwarding
system.switch_cpus.iew.lsq.thread0.cacheBlocked        21571                       # Number of times an access to memory failed due to the cache being blocked
system.switch_cpus.iew.lsq.thread0.forwLoads        38290                       # Number of loads that had data forwarded from stores
system.switch_cpus.iew.lsq.thread0.ignoredResponses          214                       # Number of memory responses ignored because the instruction is squashed
system.switch_cpus.iew.lsq.thread0.invAddrLoads            0                       # Number of loads ignored due to an invalid address
system.switch_cpus.iew.lsq.thread0.invAddrSwpfs            0                       # Number of software prefetches ignored due to an invalid address
system.switch_cpus.iew.lsq.thread0.memOrderViolation          200                       # Number of memory ordering violations
system.switch_cpus.iew.lsq.thread0.rescheduledLoads           34                       # Number of loads that were rescheduled
system.switch_cpus.iew.lsq.thread0.squashedLoads       421115                       # Number of loads squashed
system.switch_cpus.iew.lsq.thread0.squashedStores        65783                       # Number of stores squashed
system.switch_cpus.iew.memOrderViolationEvents          200                       # Number of memory order violations
system.switch_cpus.iew.predictedNotTakenIncorrect        19843                       # Number of branches that were predicted not taken incorrectly
system.switch_cpus.iew.predictedTakenIncorrect        47827                       # Number of branches that were predicted taken incorrectly
system.switch_cpus.iew.wb_consumers          23651811                       # num instructions consuming a value
system.switch_cpus.iew.wb_count              17913198                       # cumulative count of insts written-back
system.switch_cpus.iew.wb_fanout             0.589816                       # average fanout of values written-back
system.switch_cpus.iew.wb_producers          13950217                       # num instructions producing a value
system.switch_cpus.iew.wb_rate               0.972222                       # insts written-back per cycle
system.switch_cpus.iew.wb_sent               17938511                       # cumulative count of insts sent to commit
system.switch_cpus.int_regfile_reads         15424591                       # number of integer regfile reads
system.switch_cpus.int_regfile_writes         7205009                       # number of integer regfile writes
system.switch_cpus.ipc                       0.542741                       # IPC: Instructions Per Cycle
system.switch_cpus.ipc_total                 0.542741                       # IPC: Total IPC of All Threads
system.switch_cpus.iq.FU_type_0::No_OpClass        35573      0.19%      0.19% # Type of FU issued
system.switch_cpus.iq.FU_type_0::IntAlu       8007682     43.86%     44.06% # Type of FU issued
system.switch_cpus.iq.FU_type_0::IntMult           25      0.00%     44.06% # Type of FU issued
system.switch_cpus.iq.FU_type_0::IntDiv            80      0.00%     44.06% # Type of FU issued
system.switch_cpus.iq.FU_type_0::FloatAdd       898387      4.92%     48.98% # Type of FU issued
system.switch_cpus.iq.FU_type_0::FloatCmp            0      0.00%     48.98% # Type of FU issued
system.switch_cpus.iq.FU_type_0::FloatCvt            0      0.00%     48.98% # Type of FU issued
system.switch_cpus.iq.FU_type_0::FloatMult            0      0.00%     48.98% # Type of FU issued
system.switch_cpus.iq.FU_type_0::FloatMultAcc            0      0.00%     48.98% # Type of FU issued
system.switch_cpus.iq.FU_type_0::FloatDiv            0      0.00%     48.98% # Type of FU issued
system.switch_cpus.iq.FU_type_0::FloatMisc            0      0.00%     48.98% # Type of FU issued
system.switch_cpus.iq.FU_type_0::FloatSqrt            0      0.00%     48.98% # Type of FU issued
system.switch_cpus.iq.FU_type_0::SimdAdd            0      0.00%     48.98% # Type of FU issued
system.switch_cpus.iq.FU_type_0::SimdAddAcc            0      0.00%     48.98% # Type of FU issued
system.switch_cpus.iq.FU_type_0::SimdAlu      1536494      8.42%     57.40% # Type of FU issued
system.switch_cpus.iq.FU_type_0::SimdCmp            0      0.00%     57.40% # Type of FU issued
system.switch_cpus.iq.FU_type_0::SimdCvt           14      0.00%     57.40% # Type of FU issued
system.switch_cpus.iq.FU_type_0::SimdMisc        41300      0.23%     57.62% # Type of FU issued
system.switch_cpus.iq.FU_type_0::SimdMult            0      0.00%     57.62% # Type of FU issued
system.switch_cpus.iq.FU_type_0::SimdMultAcc            0      0.00%     57.62% # Type of FU issued
system.switch_cpus.iq.FU_type_0::SimdShift            0      0.00%     57.62% # Type of FU issued
system.switch_cpus.iq.FU_type_0::SimdShiftAcc            0      0.00%     57.62% # Type of FU issued
system.switch_cpus.iq.FU_type_0::SimdDiv            0      0.00%     57.62% # Type of FU issued
system.switch_cpus.iq.FU_type_0::SimdSqrt            0      0.00%     57.62% # Type of FU issued
system.switch_cpus.iq.FU_type_0::SimdFloatAdd      1394793      7.64%     65.26% # Type of FU issued
system.switch_cpus.iq.FU_type_0::SimdFloatAlu            0      0.00%     65.26% # Type of FU issued
system.switch_cpus.iq.FU_type_0::SimdFloatCmp        20124      0.11%     65.37% # Type of FU issued
system.switch_cpus.iq.FU_type_0::SimdFloatCvt      1498733      8.21%     73.58% # Type of FU issued
system.switch_cpus.iq.FU_type_0::SimdFloatDiv            0      0.00%     73.58% # Type of FU issued
system.switch_cpus.iq.FU_type_0::SimdFloatMisc            0      0.00%     73.58% # Type of FU issued
system.switch_cpus.iq.FU_type_0::SimdFloatMult      1435928      7.87%     81.45% # Type of FU issued
system.switch_cpus.iq.FU_type_0::SimdFloatMultAcc            0      0.00%     81.45% # Type of FU issued
system.switch_cpus.iq.FU_type_0::SimdFloatSqrt            0      0.00%     81.45% # Type of FU issued
system.switch_cpus.iq.FU_type_0::SimdReduceAdd            0      0.00%     81.45% # Type of FU issued
system.switch_cpus.iq.FU_type_0::SimdReduceAlu            0      0.00%     81.45% # Type of FU issued
system.switch_cpus.iq.FU_type_0::SimdReduceCmp            0      0.00%     81.45% # Type of FU issued
system.switch_cpus.iq.FU_type_0::SimdFloatReduceAdd            0      0.00%     81.45% # Type of FU issued
system.switch_cpus.iq.FU_type_0::SimdFloatReduceCmp            0      0.00%     81.45% # Type of FU issued
system.switch_cpus.iq.FU_type_0::SimdAes            0      0.00%     81.45% # Type of FU issued
system.switch_cpus.iq.FU_type_0::SimdAesMix            0      0.00%     81.45% # Type of FU issued
system.switch_cpus.iq.FU_type_0::SimdSha1Hash            0      0.00%     81.45% # Type of FU issued
system.switch_cpus.iq.FU_type_0::SimdSha1Hash2            0      0.00%     81.45% # Type of FU issued
system.switch_cpus.iq.FU_type_0::SimdSha256Hash            0      0.00%     81.45% # Type of FU issued
system.switch_cpus.iq.FU_type_0::SimdSha256Hash2            0      0.00%     81.45% # Type of FU issued
system.switch_cpus.iq.FU_type_0::SimdShaSigma2            0      0.00%     81.45% # Type of FU issued
system.switch_cpus.iq.FU_type_0::SimdShaSigma3            0      0.00%     81.45% # Type of FU issued
system.switch_cpus.iq.FU_type_0::SimdPredAlu            0      0.00%     81.45% # Type of FU issued
system.switch_cpus.iq.FU_type_0::MemRead      1085074      5.94%     87.39% # Type of FU issued
system.switch_cpus.iq.FU_type_0::MemWrite       228436      1.25%     88.64% # Type of FU issued
system.switch_cpus.iq.FU_type_0::FloatMemRead      2008882     11.00%     99.65% # Type of FU issued
system.switch_cpus.iq.FU_type_0::FloatMemWrite        64128      0.35%    100.00% # Type of FU issued
system.switch_cpus.iq.FU_type_0::IprAccess            0      0.00%    100.00% # Type of FU issued
system.switch_cpus.iq.FU_type_0::InstPrefetch            0      0.00%    100.00% # Type of FU issued
system.switch_cpus.iq.FU_type_0::total       18255653                       # Type of FU issued
system.switch_cpus.iq.fp_alu_accesses         9743466                       # Number of floating point alu accesses
system.switch_cpus.iq.fp_inst_queue_reads     19305468                       # Number of floating instruction queue reads
system.switch_cpus.iq.fp_inst_queue_wakeup_accesses      9412744                       # Number of floating instruction queue wakeup accesses
system.switch_cpus.iq.fp_inst_queue_writes     10130490                       # Number of floating instruction queue writes
system.switch_cpus.iq.fu_busy_cnt              311526                       # FU busy when requested
system.switch_cpus.iq.fu_busy_rate           0.017065                       # FU busy rate (busy events/executed inst)
system.switch_cpus.iq.fu_full::No_OpClass            0      0.00%      0.00% # attempts to use FU when none available
system.switch_cpus.iq.fu_full::IntAlu          102291     32.84%     32.84% # attempts to use FU when none available
system.switch_cpus.iq.fu_full::IntMult              0      0.00%     32.84% # attempts to use FU when none available
system.switch_cpus.iq.fu_full::IntDiv               0      0.00%     32.84% # attempts to use FU when none available
system.switch_cpus.iq.fu_full::FloatAdd             0      0.00%     32.84% # attempts to use FU when none available
system.switch_cpus.iq.fu_full::FloatCmp             0      0.00%     32.84% # attempts to use FU when none available
system.switch_cpus.iq.fu_full::FloatCvt             0      0.00%     32.84% # attempts to use FU when none available
system.switch_cpus.iq.fu_full::FloatMult            0      0.00%     32.84% # attempts to use FU when none available
system.switch_cpus.iq.fu_full::FloatMultAcc            0      0.00%     32.84% # attempts to use FU when none available
system.switch_cpus.iq.fu_full::FloatDiv             0      0.00%     32.84% # attempts to use FU when none available
system.switch_cpus.iq.fu_full::FloatMisc            0      0.00%     32.84% # attempts to use FU when none available
system.switch_cpus.iq.fu_full::FloatSqrt            0      0.00%     32.84% # attempts to use FU when none available
system.switch_cpus.iq.fu_full::SimdAdd              0      0.00%     32.84% # attempts to use FU when none available
system.switch_cpus.iq.fu_full::SimdAddAcc            0      0.00%     32.84% # attempts to use FU when none available
system.switch_cpus.iq.fu_full::SimdAlu          52671     16.91%     49.74% # attempts to use FU when none available
system.switch_cpus.iq.fu_full::SimdCmp              0      0.00%     49.74% # attempts to use FU when none available
system.switch_cpus.iq.fu_full::SimdCvt              0      0.00%     49.74% # attempts to use FU when none available
system.switch_cpus.iq.fu_full::SimdMisc             0      0.00%     49.74% # attempts to use FU when none available
system.switch_cpus.iq.fu_full::SimdMult             0      0.00%     49.74% # attempts to use FU when none available
system.switch_cpus.iq.fu_full::SimdMultAcc            0      0.00%     49.74% # attempts to use FU when none available
system.switch_cpus.iq.fu_full::SimdShift            0      0.00%     49.74% # attempts to use FU when none available
system.switch_cpus.iq.fu_full::SimdShiftAcc            0      0.00%     49.74% # attempts to use FU when none available
system.switch_cpus.iq.fu_full::SimdDiv              0      0.00%     49.74% # attempts to use FU when none available
system.switch_cpus.iq.fu_full::SimdSqrt             0      0.00%     49.74% # attempts to use FU when none available
system.switch_cpus.iq.fu_full::SimdFloatAdd        71321     22.89%     72.64% # attempts to use FU when none available
system.switch_cpus.iq.fu_full::SimdFloatAlu            0      0.00%     72.64% # attempts to use FU when none available
system.switch_cpus.iq.fu_full::SimdFloatCmp            4      0.00%     72.64% # attempts to use FU when none available
system.switch_cpus.iq.fu_full::SimdFloatCvt        19637      6.30%     78.94% # attempts to use FU when none available
system.switch_cpus.iq.fu_full::SimdFloatDiv            0      0.00%     78.94% # attempts to use FU when none available
system.switch_cpus.iq.fu_full::SimdFloatMisc            0      0.00%     78.94% # attempts to use FU when none available
system.switch_cpus.iq.fu_full::SimdFloatMult         4080      1.31%     80.25% # attempts to use FU when none available
system.switch_cpus.iq.fu_full::SimdFloatMultAcc            0      0.00%     80.25% # attempts to use FU when none available
system.switch_cpus.iq.fu_full::SimdFloatSqrt            0      0.00%     80.25% # attempts to use FU when none available
system.switch_cpus.iq.fu_full::SimdReduceAdd            0      0.00%     80.25% # attempts to use FU when none available
system.switch_cpus.iq.fu_full::SimdReduceAlu            0      0.00%     80.25% # attempts to use FU when none available
system.switch_cpus.iq.fu_full::SimdReduceCmp            0      0.00%     80.25% # attempts to use FU when none available
system.switch_cpus.iq.fu_full::SimdFloatReduceAdd            0      0.00%     80.25% # attempts to use FU when none available
system.switch_cpus.iq.fu_full::SimdFloatReduceCmp            0      0.00%     80.25% # attempts to use FU when none available
system.switch_cpus.iq.fu_full::SimdAes              0      0.00%     80.25% # attempts to use FU when none available
system.switch_cpus.iq.fu_full::SimdAesMix            0      0.00%     80.25% # attempts to use FU when none available
system.switch_cpus.iq.fu_full::SimdSha1Hash            0      0.00%     80.25% # attempts to use FU when none available
system.switch_cpus.iq.fu_full::SimdSha1Hash2            0      0.00%     80.25% # attempts to use FU when none available
system.switch_cpus.iq.fu_full::SimdSha256Hash            0      0.00%     80.25% # attempts to use FU when none available
system.switch_cpus.iq.fu_full::SimdSha256Hash2            0      0.00%     80.25% # attempts to use FU when none available
system.switch_cpus.iq.fu_full::SimdShaSigma2            0      0.00%     80.25% # attempts to use FU when none available
system.switch_cpus.iq.fu_full::SimdShaSigma3            0      0.00%     80.25% # attempts to use FU when none available
system.switch_cpus.iq.fu_full::SimdPredAlu            0      0.00%     80.25% # attempts to use FU when none available
system.switch_cpus.iq.fu_full::MemRead          21384      6.86%     87.12% # attempts to use FU when none available
system.switch_cpus.iq.fu_full::MemWrite          4288      1.38%     88.49% # attempts to use FU when none available
system.switch_cpus.iq.fu_full::FloatMemRead        35795     11.49%     99.98% # attempts to use FU when none available
system.switch_cpus.iq.fu_full::FloatMemWrite           55      0.02%    100.00% # attempts to use FU when none available
system.switch_cpus.iq.fu_full::IprAccess            0      0.00%    100.00% # attempts to use FU when none available
system.switch_cpus.iq.fu_full::InstPrefetch            0      0.00%    100.00% # attempts to use FU when none available
system.switch_cpus.iq.int_alu_accesses        8788140                       # Number of integer alu accesses
system.switch_cpus.iq.int_inst_queue_reads     35948386                       # Number of integer instruction queue reads
system.switch_cpus.iq.int_inst_queue_wakeup_accesses      8500454                       # Number of integer instruction queue wakeup accesses
system.switch_cpus.iq.int_inst_queue_writes     10992707                       # Number of integer instruction queue writes
system.switch_cpus.iq.iqInstsAdded           18911379                       # Number of instructions added to the IQ (excludes non-spec)
system.switch_cpus.iq.iqInstsIssued          18255653                       # Number of instructions issued
system.switch_cpus.iq.iqSquashedInstsExamined      2211619                       # Number of squashed instructions iterated over during squash; mainly for profiling
system.switch_cpus.iq.iqSquashedInstsIssued        37829                       # Number of squashed instructions issued
system.switch_cpus.iq.iqSquashedOperandsExamined      3322893                       # Number of squashed operands that are examined and possibly removed from graph
system.switch_cpus.iq.issued_per_cycle::samples     18393199                       # Number of insts issued each cycle
system.switch_cpus.iq.issued_per_cycle::mean     0.992522                       # Number of insts issued each cycle
system.switch_cpus.iq.issued_per_cycle::stdev     1.863815                       # Number of insts issued each cycle
system.switch_cpus.iq.issued_per_cycle::underflows            0      0.00%      0.00% # Number of insts issued each cycle
system.switch_cpus.iq.issued_per_cycle::0     12744435     69.29%     69.29% # Number of insts issued each cycle
system.switch_cpus.iq.issued_per_cycle::1      1462945      7.95%     77.24% # Number of insts issued each cycle
system.switch_cpus.iq.issued_per_cycle::2      1074526      5.84%     83.08% # Number of insts issued each cycle
system.switch_cpus.iq.issued_per_cycle::3       875392      4.76%     87.84% # Number of insts issued each cycle
system.switch_cpus.iq.issued_per_cycle::4       774290      4.21%     92.05% # Number of insts issued each cycle
system.switch_cpus.iq.issued_per_cycle::5       521440      2.83%     94.89% # Number of insts issued each cycle
system.switch_cpus.iq.issued_per_cycle::6       451064      2.45%     97.34% # Number of insts issued each cycle
system.switch_cpus.iq.issued_per_cycle::7       306120      1.66%     99.01% # Number of insts issued each cycle
system.switch_cpus.iq.issued_per_cycle::8       182987      0.99%    100.00% # Number of insts issued each cycle
system.switch_cpus.iq.issued_per_cycle::overflows            0      0.00%    100.00% # Number of insts issued each cycle
system.switch_cpus.iq.issued_per_cycle::min_value            0                       # Number of insts issued each cycle
system.switch_cpus.iq.issued_per_cycle::max_value            8                       # Number of insts issued each cycle
system.switch_cpus.iq.issued_per_cycle::total     18393199                       # Number of insts issued each cycle
system.switch_cpus.iq.rate                   0.990809                       # Inst issue rate
system.switch_cpus.iq.vec_alu_accesses              0                       # Number of vector alu accesses
system.switch_cpus.iq.vec_inst_queue_reads            0                       # Number of vector instruction queue reads
system.switch_cpus.iq.vec_inst_queue_wakeup_accesses            0                       # Number of vector instruction queue wakeup accesses
system.switch_cpus.iq.vec_inst_queue_writes            0                       # Number of vector instruction queue writes
system.switch_cpus.itb.rdAccesses                   0                       # TLB accesses on read requests
system.switch_cpus.itb.rdMisses                     0                       # TLB misses on read requests
system.switch_cpus.itb.wrAccesses             1496555                       # TLB accesses on write requests
system.switch_cpus.itb.wrMisses                   298                       # TLB misses on write requests
system.switch_cpus.memDep0.conflictingLoads        44723                       # Number of conflicting loads.
system.switch_cpus.memDep0.conflictingStores        16400                       # Number of conflicting stores.
system.switch_cpus.memDep0.insertedLoads      3072226                       # Number of loads inserted to the mem dependence unit.
system.switch_cpus.memDep0.insertedStores       324305                       # Number of stores inserted to the mem dependence unit.
system.switch_cpus.misc_regfile_reads         5609655                       # number of misc regfile reads
system.switch_cpus.misc_regfile_writes              1                       # number of misc regfile writes
system.switch_cpus.numCycles                 18425000                       # number of cpu cycles simulated
system.switch_cpus.numWorkItemsCompleted            0                       # number of work items this cpu completed
system.switch_cpus.numWorkItemsStarted              0                       # number of work items this cpu started
system.switch_cpus.rename.BlockCycles        11691091                       # Number of cycles rename is blocking
system.switch_cpus.rename.CommittedMaps      19126939                       # Number of HB maps that are committed
system.switch_cpus.rename.IQFullEvents        1529338                       # Number of times rename has blocked due to IQ full
system.switch_cpus.rename.IdleCycles          1365895                       # Number of cycles rename is idle
system.switch_cpus.rename.LQFullEvents         437775                       # Number of times rename has blocked due to LQ full
system.switch_cpus.rename.ROBFullEvents        147594                       # Number of times rename has blocked due to ROB full
system.switch_cpus.rename.RenameLookups      47010069                       # Number of register rename lookups that rename has made
system.switch_cpus.rename.RenamedInsts       19363308                       # Number of instructions processed by rename
system.switch_cpus.rename.RenamedOperands     22318478                       # Number of destination operands rename has renamed
system.switch_cpus.rename.RunCycles           2357456                       # Number of cycles rename is running
system.switch_cpus.rename.SQFullEvents         677742                       # Number of times rename has blocked due to SQ full
system.switch_cpus.rename.SquashCycles          60761                       # Number of cycles rename is squashing
system.switch_cpus.rename.UnblockCycles       2917995                       # Number of cycles rename is unblocking
system.switch_cpus.rename.UndoneMaps          3191381                       # Number of HB maps that are undone due to squashing
system.switch_cpus.rename.fp_rename_lookups     16831278                       # Number of floating rename lookups
system.switch_cpus.rename.int_rename_lookups     17046580                       # Number of integer rename lookups
system.switch_cpus.rename.serializeStallCycles            0                       # count of cycles rename stalled for serializing inst
system.switch_cpus.rename.serializingInsts            0                       # count of serializing insts renamed
system.switch_cpus.rename.skidInsts           4582236                       # count of insts added to the skid buffer
system.switch_cpus.rename.tempSerializingInsts            0                       # count of temporary serializing insts renamed
system.switch_cpus.rob.rob_reads             35620174                       # The number of ROB reads
system.switch_cpus.rob.rob_writes            38140638                       # The number of ROB writes
system.switch_cpus.timesIdled                     388                       # Number of times that the entire CPU went into an idle state and unscheduled itself
system.tol2bus.snoop_filter.hit_multi_requests            0                       # Number of requests hitting in the snoop filter with multiple (>1) holders of the requested data.
system.tol2bus.snoop_filter.hit_multi_snoops            0                       # Number of snoops hitting in the snoop filter with multiple (>1) holders of the requested data.
system.tol2bus.snoop_filter.hit_single_requests       183456                       # Number of requests hitting in the snoop filter with a single holder of the requested data.
system.tol2bus.snoop_filter.hit_single_snoops       160343                       # Number of snoops hitting in the snoop filter with a single holder of the requested data.
system.tol2bus.snoop_filter.tot_requests       368226                       # Total number of requests made to the snoop filter.
system.tol2bus.snoop_filter.tot_snoops         160343                       # Total number of snoops made to the snoop filter.
system.membus.pwrStateResidencyTicks::UNDEFINED 270776492564000                       # Cumulative time (in ticks) in various power states
system.membus.trans_dist::ReadResp             158012                       # Transaction distribution
system.membus.trans_dist::WritebackDirty        14852                       # Transaction distribution
system.membus.trans_dist::CleanEvict           150799                       # Transaction distribution
system.membus.trans_dist::ReadExReq             10467                       # Transaction distribution
system.membus.trans_dist::ReadExResp            10467                       # Transaction distribution
system.membus.trans_dist::ReadSharedReq        158013                       # Transaction distribution
system.membus.pkt_count_system.l2.mem_side::system.mem_ctrls.port       502610                       # Packet count per connected master and slave (bytes)
system.membus.pkt_count_system.l2.mem_side::total       502610                       # Packet count per connected master and slave (bytes)
system.membus.pkt_count::total                 502610                       # Packet count per connected master and slave (bytes)
system.membus.pkt_size_system.l2.mem_side::system.mem_ctrls.port     11733184                       # Cumulative packet size per connected master and slave (bytes)
system.membus.pkt_size_system.l2.mem_side::total     11733184                       # Cumulative packet size per connected master and slave (bytes)
system.membus.pkt_size::total                11733184                       # Cumulative packet size per connected master and slave (bytes)
system.membus.snoops                                0                       # Total snoops (count)
system.membus.snoopTraffic                          0                       # Total snoop traffic (bytes)
system.membus.snoop_fanout::samples            168480                       # Request fanout histogram
system.membus.snoop_fanout::mean                    0                       # Request fanout histogram
system.membus.snoop_fanout::stdev                   0                       # Request fanout histogram
system.membus.snoop_fanout::underflows              0      0.00%      0.00% # Request fanout histogram
system.membus.snoop_fanout::0                  168480    100.00%    100.00% # Request fanout histogram
system.membus.snoop_fanout::1                       0      0.00%    100.00% # Request fanout histogram
system.membus.snoop_fanout::overflows               0      0.00%    100.00% # Request fanout histogram
system.membus.snoop_fanout::min_value               0                       # Request fanout histogram
system.membus.snoop_fanout::max_value               0                       # Request fanout histogram
system.membus.snoop_fanout::total              168480                       # Request fanout histogram
system.membus.reqLayer2.occupancy           428505000                       # Layer occupancy (ticks)
system.membus.reqLayer2.utilization               4.7                       # Layer utilization (%)
system.membus.respLayer1.occupancy          900752000                       # Layer occupancy (ticks)
system.membus.respLayer1.utilization              9.8                       # Layer utilization (%)
system.switch_cpus.pwrStateResidencyTicks::OFF   9212510250                       # Cumulative time (in ticks) in various power states
system.switch_cpus.dtb.walker.pwrStateResidencyTicks::UNDEFINED 270776492564000                       # Cumulative time (in ticks) in various power states
system.switch_cpus.itb.walker.pwrStateResidencyTicks::UNDEFINED 270776492564000                       # Cumulative time (in ticks) in various power states
system.tol2bus.pwrStateResidencyTicks::UNDEFINED 270776492564000                       # Cumulative time (in ticks) in various power states
system.tol2bus.trans_dist::ReadResp            172432                       # Transaction distribution
system.tol2bus.trans_dist::WritebackDirty        43634                       # Transaction distribution
system.tol2bus.trans_dist::WritebackClean          184                       # Transaction distribution
system.tol2bus.trans_dist::CleanEvict          321228                       # Transaction distribution
system.tol2bus.trans_dist::ReadExReq            12337                       # Transaction distribution
system.tol2bus.trans_dist::ReadExResp           12337                       # Transaction distribution
system.tol2bus.trans_dist::ReadCleanReq           473                       # Transaction distribution
system.tol2bus.trans_dist::ReadSharedReq       171960                       # Transaction distribution
system.tol2bus.pkt_count_system.cpu.icache.mem_side::system.l2.cpu_side         1130                       # Packet count per connected master and slave (bytes)
system.tol2bus.pkt_count_system.cpu.dcache.mem_side::system.l2.cpu_side       551865                       # Packet count per connected master and slave (bytes)
system.tol2bus.pkt_count::total                552995                       # Packet count per connected master and slave (bytes)
system.tol2bus.pkt_size_system.cpu.icache.mem_side::system.l2.cpu_side        42048                       # Cumulative packet size per connected master and slave (bytes)
system.tol2bus.pkt_size_system.cpu.dcache.mem_side::system.l2.cpu_side     13636992                       # Cumulative packet size per connected master and slave (bytes)
system.tol2bus.pkt_size::total               13679040                       # Cumulative packet size per connected master and slave (bytes)
system.tol2bus.snoops                          181590                       # Total snoops (count)
system.tol2bus.snoopTraffic                    950528                       # Total snoop traffic (bytes)
system.tol2bus.snoop_fanout::samples           366360                       # Request fanout histogram
system.tol2bus.snoop_fanout::mean            0.437665                       # Request fanout histogram
system.tol2bus.snoop_fanout::stdev           0.496100                       # Request fanout histogram
system.tol2bus.snoop_fanout::underflows             0      0.00%      0.00% # Request fanout histogram
system.tol2bus.snoop_fanout::0                 206017     56.23%     56.23% # Request fanout histogram
system.tol2bus.snoop_fanout::1                 160343     43.77%    100.00% # Request fanout histogram
system.tol2bus.snoop_fanout::2                      0      0.00%    100.00% # Request fanout histogram
system.tol2bus.snoop_fanout::3                      0      0.00%    100.00% # Request fanout histogram
system.tol2bus.snoop_fanout::4                      0      0.00%    100.00% # Request fanout histogram
system.tol2bus.snoop_fanout::overflows              0      0.00%    100.00% # Request fanout histogram
system.tol2bus.snoop_fanout::min_value              0                       # Request fanout histogram
system.tol2bus.snoop_fanout::max_value              1                       # Request fanout histogram
system.tol2bus.snoop_fanout::total             366360                       # Request fanout histogram
system.tol2bus.reqLayer0.occupancy          213076500                       # Layer occupancy (ticks)
system.tol2bus.reqLayer0.utilization              2.3                       # Layer utilization (%)
system.tol2bus.respLayer1.occupancy         276439500                       # Layer occupancy (ticks)
system.tol2bus.respLayer1.utilization             3.0                       # Layer utilization (%)
system.tol2bus.respLayer0.occupancy            706500                       # Layer occupancy (ticks)
system.tol2bus.respLayer0.utilization             0.0                       # Layer utilization (%)
system.voltage_domain.voltage                       1                       # Voltage in Volts
system.clk_domain.clock                          1000                       # Clock period in ticks
system.l2.pwrStateResidencyTicks::UNDEFINED 270776492564000                       # Cumulative time (in ticks) in various power states
system.l2.demand_hits::.switch_cpus.inst           20                       # number of demand (read+write) hits
system.l2.demand_hits::.switch_cpus.data        16270                       # number of demand (read+write) hits
system.l2.demand_hits::total                    16290                       # number of demand (read+write) hits
system.l2.overall_hits::.switch_cpus.inst           20                       # number of overall hits
system.l2.overall_hits::.switch_cpus.data        16270                       # number of overall hits
system.l2.overall_hits::total                   16290                       # number of overall hits
system.l2.demand_misses::.cpu.inst                  2                       # number of demand (read+write) misses
system.l2.demand_misses::.cpu.data                  3                       # number of demand (read+write) misses
system.l2.demand_misses::.switch_cpus.inst          451                       # number of demand (read+write) misses
system.l2.demand_misses::.switch_cpus.data       168024                       # number of demand (read+write) misses
system.l2.demand_misses::total                 168480                       # number of demand (read+write) misses
system.l2.overall_misses::.cpu.inst                 2                       # number of overall misses
system.l2.overall_misses::.cpu.data                 3                       # number of overall misses
system.l2.overall_misses::.switch_cpus.inst          451                       # number of overall misses
system.l2.overall_misses::.switch_cpus.data       168024                       # number of overall misses
system.l2.overall_misses::total                168480                       # number of overall misses
system.l2.demand_miss_latency::.switch_cpus.inst     40908500                       # number of demand (read+write) miss cycles
system.l2.demand_miss_latency::.switch_cpus.data  13834386500                       # number of demand (read+write) miss cycles
system.l2.demand_miss_latency::total      13875295000                       # number of demand (read+write) miss cycles
system.l2.overall_miss_latency::.switch_cpus.inst     40908500                       # number of overall miss cycles
system.l2.overall_miss_latency::.switch_cpus.data  13834386500                       # number of overall miss cycles
system.l2.overall_miss_latency::total     13875295000                       # number of overall miss cycles
system.l2.demand_accesses::.cpu.inst                2                       # number of demand (read+write) accesses
system.l2.demand_accesses::.cpu.data                3                       # number of demand (read+write) accesses
system.l2.demand_accesses::.switch_cpus.inst          471                       # number of demand (read+write) accesses
system.l2.demand_accesses::.switch_cpus.data       184294                       # number of demand (read+write) accesses
system.l2.demand_accesses::total               184770                       # number of demand (read+write) accesses
system.l2.overall_accesses::.cpu.inst               2                       # number of overall (read+write) accesses
system.l2.overall_accesses::.cpu.data               3                       # number of overall (read+write) accesses
system.l2.overall_accesses::.switch_cpus.inst          471                       # number of overall (read+write) accesses
system.l2.overall_accesses::.switch_cpus.data       184294                       # number of overall (read+write) accesses
system.l2.overall_accesses::total              184770                       # number of overall (read+write) accesses
system.l2.demand_miss_rate::.cpu.inst               1                       # miss rate for demand accesses
system.l2.demand_miss_rate::.cpu.data               1                       # miss rate for demand accesses
system.l2.demand_miss_rate::.switch_cpus.inst     0.957537                       # miss rate for demand accesses
system.l2.demand_miss_rate::.switch_cpus.data     0.911717                       # miss rate for demand accesses
system.l2.demand_miss_rate::total            0.911836                       # miss rate for demand accesses
system.l2.overall_miss_rate::.cpu.inst              1                       # miss rate for overall accesses
system.l2.overall_miss_rate::.cpu.data              1                       # miss rate for overall accesses
system.l2.overall_miss_rate::.switch_cpus.inst     0.957537                       # miss rate for overall accesses
system.l2.overall_miss_rate::.switch_cpus.data     0.911717                       # miss rate for overall accesses
system.l2.overall_miss_rate::total           0.911836                       # miss rate for overall accesses
system.l2.demand_avg_miss_latency::.switch_cpus.inst 90706.208426                       # average overall miss latency
system.l2.demand_avg_miss_latency::.switch_cpus.data 82335.776437                       # average overall miss latency
system.l2.demand_avg_miss_latency::total 82355.739554                       # average overall miss latency
system.l2.overall_avg_miss_latency::.switch_cpus.inst 90706.208426                       # average overall miss latency
system.l2.overall_avg_miss_latency::.switch_cpus.data 82335.776437                       # average overall miss latency
system.l2.overall_avg_miss_latency::total 82355.739554                       # average overall miss latency
system.l2.blocked_cycles::no_mshrs                  0                       # number of cycles access was blocked
system.l2.blocked_cycles::no_targets                0                       # number of cycles access was blocked
system.l2.blocked::no_mshrs                         0                       # number of cycles access was blocked
system.l2.blocked::no_targets                       0                       # number of cycles access was blocked
system.l2.avg_blocked_cycles::no_mshrs            nan                       # average number of cycles each access was blocked
system.l2.avg_blocked_cycles::no_targets          nan                       # average number of cycles each access was blocked
system.l2.writebacks::.writebacks               14852                       # number of writebacks
system.l2.writebacks::total                     14852                       # number of writebacks
system.l2.demand_mshr_misses::.switch_cpus.inst          451                       # number of demand (read+write) MSHR misses
system.l2.demand_mshr_misses::.switch_cpus.data       168024                       # number of demand (read+write) MSHR misses
system.l2.demand_mshr_misses::total            168475                       # number of demand (read+write) MSHR misses
system.l2.overall_mshr_misses::.switch_cpus.inst          451                       # number of overall MSHR misses
system.l2.overall_mshr_misses::.switch_cpus.data       168024                       # number of overall MSHR misses
system.l2.overall_mshr_misses::total           168475                       # number of overall MSHR misses
system.l2.demand_mshr_miss_latency::.switch_cpus.inst     36398500                       # number of demand (read+write) MSHR miss cycles
system.l2.demand_mshr_miss_latency::.switch_cpus.data  12154156500                       # number of demand (read+write) MSHR miss cycles
system.l2.demand_mshr_miss_latency::total  12190555000                       # number of demand (read+write) MSHR miss cycles
system.l2.overall_mshr_miss_latency::.switch_cpus.inst     36398500                       # number of overall MSHR miss cycles
system.l2.overall_mshr_miss_latency::.switch_cpus.data  12154156500                       # number of overall MSHR miss cycles
system.l2.overall_mshr_miss_latency::total  12190555000                       # number of overall MSHR miss cycles
system.l2.demand_mshr_miss_rate::.switch_cpus.inst     0.957537                       # mshr miss rate for demand accesses
system.l2.demand_mshr_miss_rate::.switch_cpus.data     0.911717                       # mshr miss rate for demand accesses
system.l2.demand_mshr_miss_rate::total       0.911809                       # mshr miss rate for demand accesses
system.l2.overall_mshr_miss_rate::.switch_cpus.inst     0.957537                       # mshr miss rate for overall accesses
system.l2.overall_mshr_miss_rate::.switch_cpus.data     0.911717                       # mshr miss rate for overall accesses
system.l2.overall_mshr_miss_rate::total      0.911809                       # mshr miss rate for overall accesses
system.l2.demand_avg_mshr_miss_latency::.switch_cpus.inst 80706.208426                       # average overall mshr miss latency
system.l2.demand_avg_mshr_miss_latency::.switch_cpus.data 72335.835952                       # average overall mshr miss latency
system.l2.demand_avg_mshr_miss_latency::total 72358.243063                       # average overall mshr miss latency
system.l2.overall_avg_mshr_miss_latency::.switch_cpus.inst 80706.208426                       # average overall mshr miss latency
system.l2.overall_avg_mshr_miss_latency::.switch_cpus.data 72335.835952                       # average overall mshr miss latency
system.l2.overall_avg_mshr_miss_latency::total 72358.243063                       # average overall mshr miss latency
system.l2.replacements                         181590                       # number of replacements
system.l2.WritebackDirty_hits::.writebacks        28782                       # number of WritebackDirty hits
system.l2.WritebackDirty_hits::total            28782                       # number of WritebackDirty hits
system.l2.WritebackDirty_accesses::.writebacks        28782                       # number of WritebackDirty accesses(hits+misses)
system.l2.WritebackDirty_accesses::total        28782                       # number of WritebackDirty accesses(hits+misses)
system.l2.WritebackClean_hits::.writebacks          184                       # number of WritebackClean hits
system.l2.WritebackClean_hits::total              184                       # number of WritebackClean hits
system.l2.WritebackClean_accesses::.writebacks          184                       # number of WritebackClean accesses(hits+misses)
system.l2.WritebackClean_accesses::total          184                       # number of WritebackClean accesses(hits+misses)
system.l2.CleanEvict_mshr_misses::.writebacks       144405                       # number of CleanEvict MSHR misses
system.l2.CleanEvict_mshr_misses::total        144405                       # number of CleanEvict MSHR misses
system.l2.CleanEvict_mshr_miss_rate::.writebacks          inf                       # mshr miss rate for CleanEvict accesses
system.l2.CleanEvict_mshr_miss_rate::total          inf                       # mshr miss rate for CleanEvict accesses
system.l2.ReadExReq_hits::.switch_cpus.data         1870                       # number of ReadExReq hits
system.l2.ReadExReq_hits::total                  1870                       # number of ReadExReq hits
system.l2.ReadExReq_misses::.cpu.data               1                       # number of ReadExReq misses
system.l2.ReadExReq_misses::.switch_cpus.data        10466                       # number of ReadExReq misses
system.l2.ReadExReq_misses::total               10467                       # number of ReadExReq misses
system.l2.ReadExReq_miss_latency::.switch_cpus.data    841684000                       # number of ReadExReq miss cycles
system.l2.ReadExReq_miss_latency::total     841684000                       # number of ReadExReq miss cycles
system.l2.ReadExReq_accesses::.cpu.data             1                       # number of ReadExReq accesses(hits+misses)
system.l2.ReadExReq_accesses::.switch_cpus.data        12336                       # number of ReadExReq accesses(hits+misses)
system.l2.ReadExReq_accesses::total             12337                       # number of ReadExReq accesses(hits+misses)
system.l2.ReadExReq_miss_rate::.cpu.data            1                       # miss rate for ReadExReq accesses
system.l2.ReadExReq_miss_rate::.switch_cpus.data     0.848411                       # miss rate for ReadExReq accesses
system.l2.ReadExReq_miss_rate::total         0.848423                       # miss rate for ReadExReq accesses
system.l2.ReadExReq_avg_miss_latency::.switch_cpus.data 80420.791133                       # average ReadExReq miss latency
system.l2.ReadExReq_avg_miss_latency::total 80413.107863                       # average ReadExReq miss latency
system.l2.ReadExReq_mshr_misses::.switch_cpus.data        10466                       # number of ReadExReq MSHR misses
system.l2.ReadExReq_mshr_misses::total          10466                       # number of ReadExReq MSHR misses
system.l2.ReadExReq_mshr_miss_latency::.switch_cpus.data    737024000                       # number of ReadExReq MSHR miss cycles
system.l2.ReadExReq_mshr_miss_latency::total    737024000                       # number of ReadExReq MSHR miss cycles
system.l2.ReadExReq_mshr_miss_rate::.switch_cpus.data     0.848411                       # mshr miss rate for ReadExReq accesses
system.l2.ReadExReq_mshr_miss_rate::total     0.848342                       # mshr miss rate for ReadExReq accesses
system.l2.ReadExReq_avg_mshr_miss_latency::.switch_cpus.data 70420.791133                       # average ReadExReq mshr miss latency
system.l2.ReadExReq_avg_mshr_miss_latency::total 70420.791133                       # average ReadExReq mshr miss latency
system.l2.ReadCleanReq_hits::.switch_cpus.inst           20                       # number of ReadCleanReq hits
system.l2.ReadCleanReq_hits::total                 20                       # number of ReadCleanReq hits
system.l2.ReadCleanReq_misses::.cpu.inst            2                       # number of ReadCleanReq misses
system.l2.ReadCleanReq_misses::.switch_cpus.inst          451                       # number of ReadCleanReq misses
system.l2.ReadCleanReq_misses::total              453                       # number of ReadCleanReq misses
system.l2.ReadCleanReq_miss_latency::.switch_cpus.inst     40908500                       # number of ReadCleanReq miss cycles
system.l2.ReadCleanReq_miss_latency::total     40908500                       # number of ReadCleanReq miss cycles
system.l2.ReadCleanReq_accesses::.cpu.inst            2                       # number of ReadCleanReq accesses(hits+misses)
system.l2.ReadCleanReq_accesses::.switch_cpus.inst          471                       # number of ReadCleanReq accesses(hits+misses)
system.l2.ReadCleanReq_accesses::total            473                       # number of ReadCleanReq accesses(hits+misses)
system.l2.ReadCleanReq_miss_rate::.cpu.inst            1                       # miss rate for ReadCleanReq accesses
system.l2.ReadCleanReq_miss_rate::.switch_cpus.inst     0.957537                       # miss rate for ReadCleanReq accesses
system.l2.ReadCleanReq_miss_rate::total      0.957717                       # miss rate for ReadCleanReq accesses
system.l2.ReadCleanReq_avg_miss_latency::.switch_cpus.inst 90706.208426                       # average ReadCleanReq miss latency
[...]
system.cpu.itb.walker.pwrStateResidencyTicks::UNDEFINED 270804227144000                       # Cumulative time (in ticks) in various power states
system.cpu.dtb_walker_cache.pwrStateResidencyTicks::UNDEFINED 270804227144000                       # Cumulative time (in ticks) in various power states
system.cpu.dtb_walker_cache.blocked_cycles::no_mshrs            0                       # number of cycles access was blocked
system.cpu.dtb_walker_cache.blocked_cycles::no_targets            0                       # number of cycles access was blocked
system.cpu.dtb_walker_cache.blocked::no_mshrs            0                       # number of cycles access was blocked
system.cpu.dtb_walker_cache.blocked::no_targets            0                       # number of cycles access was blocked
system.cpu.dtb_walker_cache.avg_blocked_cycles::no_mshrs          nan                       # average number of cycles each access was blocked
system.cpu.dtb_walker_cache.avg_blocked_cycles::no_targets          nan                       # average number of cycles each access was blocked
system.cpu.dtb_walker_cache.replacements            0                       # number of replacements
system.cpu.dtb_walker_cache.tags.pwrStateResidencyTicks::UNDEFINED 270804227144000                       # Cumulative time (in ticks) in various power states
system.cpu.dtb_walker_cache.tags.tagsinuse            0                       # Cycle average of tags in use
system.cpu.dtb_walker_cache.tags.total_refs            0                       # Total number of references to valid blocks.
system.cpu.dtb_walker_cache.tags.sampled_refs            0                       # Sample count of references to valid blocks.
system.cpu.dtb_walker_cache.tags.avg_refs          nan                       # Average number of references to valid blocks.
system.cpu.dtb_walker_cache.tags.warmup_cycle            0                       # Cycle when the warmup percentage was hit.
system.cpu.dtb_walker_cache.tags.tag_accesses            0                       # Number of tag accesses
system.cpu.dtb_walker_cache.tags.data_accesses            0                       # Number of data accesses
system.cpu.dcache.pwrStateResidencyTicks::UNDEFINED 270804227144000                       # Cumulative time (in ticks) in various power states
system.cpu.dcache.demand_hits::.cpu.data            3                       # number of demand (read+write) hits
system.cpu.dcache.demand_hits::.switch_cpus.data     10260880                       # number of demand (read+write) hits
system.cpu.dcache.demand_hits::total         10260883                       # number of demand (read+write) hits
system.cpu.dcache.overall_hits::.cpu.data            3                       # number of overall hits
system.cpu.dcache.overall_hits::.switch_cpus.data     10276933                       # number of overall hits
system.cpu.dcache.overall_hits::total        10276936                       # number of overall hits
system.cpu.dcache.demand_misses::.cpu.data            3                       # number of demand (read+write) misses
system.cpu.dcache.demand_misses::.switch_cpus.data      3064389                       # number of demand (read+write) misses
system.cpu.dcache.demand_misses::total        3064392                       # number of demand (read+write) misses
system.cpu.dcache.overall_misses::.cpu.data            3                       # number of overall misses
system.cpu.dcache.overall_misses::.switch_cpus.data      3064736                       # number of overall misses
system.cpu.dcache.overall_misses::total       3064739                       # number of overall misses
system.cpu.dcache.demand_miss_latency::.switch_cpus.data 211252244859                       # number of demand (read+write) miss cycles
system.cpu.dcache.demand_miss_latency::total 211252244859                       # number of demand (read+write) miss cycles
system.cpu.dcache.overall_miss_latency::.switch_cpus.data 211252244859                       # number of overall miss cycles
system.cpu.dcache.overall_miss_latency::total 211252244859                       # number of overall miss cycles
system.cpu.dcache.demand_accesses::.cpu.data            6                       # number of demand (read+write) accesses
system.cpu.dcache.demand_accesses::.switch_cpus.data     13325269                       # number of demand (read+write) accesses
system.cpu.dcache.demand_accesses::total     13325275                       # number of demand (read+write) accesses
system.cpu.dcache.overall_accesses::.cpu.data            6                       # number of overall (read+write) accesses
system.cpu.dcache.overall_accesses::.switch_cpus.data     13341669                       # number of overall (read+write) accesses
system.cpu.dcache.overall_accesses::total     13341675                       # number of overall (read+write) accesses
system.cpu.dcache.demand_miss_rate::.cpu.data     0.500000                       # miss rate for demand accesses
system.cpu.dcache.demand_miss_rate::.switch_cpus.data     0.229968                       # miss rate for demand accesses
system.cpu.dcache.demand_miss_rate::total     0.229968                       # miss rate for demand accesses
system.cpu.dcache.overall_miss_rate::.cpu.data     0.500000                       # miss rate for overall accesses
system.cpu.dcache.overall_miss_rate::.switch_cpus.data     0.229712                       # miss rate for overall accesses
system.cpu.dcache.overall_miss_rate::total     0.229712                       # miss rate for overall accesses
system.cpu.dcache.demand_avg_miss_latency::.switch_cpus.data 68937.802890                       # average overall miss latency
system.cpu.dcache.demand_avg_miss_latency::total 68937.735400                       # average overall miss latency
system.cpu.dcache.overall_avg_miss_latency::.switch_cpus.data 68929.997513                       # average overall miss latency
system.cpu.dcache.overall_avg_miss_latency::total 68929.930039                       # average overall miss latency
system.cpu.dcache.blocked_cycles::no_mshrs      4202549                       # number of cycles access was blocked
system.cpu.dcache.blocked_cycles::no_targets          251                       # number of cycles access was blocked
system.cpu.dcache.blocked::no_mshrs            102386                       # number of cycles access was blocked
system.cpu.dcache.blocked::no_targets               2                       # number of cycles access was blocked
system.cpu.dcache.avg_blocked_cycles::no_mshrs    41.046129                       # average number of cycles each access was blocked
system.cpu.dcache.avg_blocked_cycles::no_targets   125.500000                       # average number of cycles each access was blocked
system.cpu.dcache.writebacks::.writebacks       126704                       # number of writebacks
system.cpu.dcache.writebacks::total            126704                       # number of writebacks
system.cpu.dcache.demand_mshr_hits::.switch_cpus.data      2310473                       # number of demand (read+write) MSHR hits
system.cpu.dcache.demand_mshr_hits::total      2310473                       # number of demand (read+write) MSHR hits
system.cpu.dcache.overall_mshr_hits::.switch_cpus.data      2310473                       # number of overall MSHR hits
system.cpu.dcache.overall_mshr_hits::total      2310473                       # number of overall MSHR hits
system.cpu.dcache.demand_mshr_misses::.switch_cpus.data       753916                       # number of demand (read+write) MSHR misses
system.cpu.dcache.demand_mshr_misses::total       753916                       # number of demand (read+write) MSHR misses
system.cpu.dcache.overall_mshr_misses::.switch_cpus.data       754075                       # number of overall MSHR misses
system.cpu.dcache.overall_mshr_misses::total       754075                       # number of overall MSHR misses
system.cpu.dcache.demand_mshr_miss_latency::.switch_cpus.data  58127981369                       # number of demand (read+write) MSHR miss cycles
system.cpu.dcache.demand_mshr_miss_latency::total  58127981369                       # number of demand (read+write) MSHR miss cycles
system.cpu.dcache.overall_mshr_miss_latency::.switch_cpus.data  58136817869                       # number of overall MSHR miss cycles
system.cpu.dcache.overall_mshr_miss_latency::total  58136817869                       # number of overall MSHR miss cycles
system.cpu.dcache.demand_mshr_miss_rate::.switch_cpus.data     0.056578                       # mshr miss rate for demand accesses
system.cpu.dcache.demand_mshr_miss_rate::total     0.056578                       # mshr miss rate for demand accesses
system.cpu.dcache.overall_mshr_miss_rate::.switch_cpus.data     0.056520                       # mshr miss rate for overall accesses
system.cpu.dcache.overall_mshr_miss_rate::total     0.056520                       # mshr miss rate for overall accesses
system.cpu.dcache.demand_avg_mshr_miss_latency::.switch_cpus.data 77101.403033                       # average overall mshr miss latency
system.cpu.dcache.demand_avg_mshr_miss_latency::total 77101.403033                       # average overall mshr miss latency
system.cpu.dcache.overall_avg_mshr_miss_latency::.switch_cpus.data 77096.864197                       # average overall mshr miss latency
system.cpu.dcache.overall_avg_mshr_miss_latency::total 77096.864197                       # average overall mshr miss latency
system.cpu.dcache.replacements                 753053                       # number of replacements
system.cpu.dcache.ReadReq_hits::.cpu.data            3                       # number of ReadReq hits
system.cpu.dcache.ReadReq_hits::.switch_cpus.data      9057839                       # number of ReadReq hits
system.cpu.dcache.ReadReq_hits::total         9057842                       # number of ReadReq hits
system.cpu.dcache.ReadReq_misses::.cpu.data            2                       # number of ReadReq misses
system.cpu.dcache.ReadReq_misses::.switch_cpus.data      3017837                       # number of ReadReq misses
system.cpu.dcache.ReadReq_misses::total       3017839                       # number of ReadReq misses
system.cpu.dcache.ReadReq_miss_latency::.switch_cpus.data 207955050500                       # number of ReadReq miss cycles
system.cpu.dcache.ReadReq_miss_latency::total 207955050500                       # number of ReadReq miss cycles
system.cpu.dcache.ReadReq_accesses::.cpu.data            5                       # number of ReadReq accesses(hits+misses)
system.cpu.dcache.ReadReq_accesses::.switch_cpus.data     12075676                       # number of ReadReq accesses(hits+misses)
system.cpu.dcache.ReadReq_accesses::total     12075681                       # number of ReadReq accesses(hits+misses)
system.cpu.dcache.ReadReq_miss_rate::.cpu.data     0.400000                       # miss rate for ReadReq accesses
system.cpu.dcache.ReadReq_miss_rate::.switch_cpus.data     0.249910                       # miss rate for ReadReq accesses
system.cpu.dcache.ReadReq_miss_rate::total     0.249910                       # miss rate for ReadReq accesses
system.cpu.dcache.ReadReq_avg_miss_latency::.switch_cpus.data 68908.642349                       # average ReadReq miss latency
system.cpu.dcache.ReadReq_avg_miss_latency::total 68908.596681                       # average ReadReq miss latency
system.cpu.dcache.ReadReq_mshr_hits::.switch_cpus.data      2310222                       # number of ReadReq MSHR hits
system.cpu.dcache.ReadReq_mshr_hits::total      2310222                       # number of ReadReq MSHR hits
system.cpu.dcache.ReadReq_mshr_misses::.switch_cpus.data       707615                       # number of ReadReq MSHR misses
system.cpu.dcache.ReadReq_mshr_misses::total       707615                       # number of ReadReq MSHR misses
system.cpu.dcache.ReadReq_mshr_miss_latency::.switch_cpus.data  54888700000                       # number of ReadReq MSHR miss cycles
system.cpu.dcache.ReadReq_mshr_miss_latency::total  54888700000                       # number of ReadReq MSHR miss cycles
system.cpu.dcache.ReadReq_mshr_miss_rate::.switch_cpus.data     0.058598                       # mshr miss rate for ReadReq accesses
system.cpu.dcache.ReadReq_mshr_miss_rate::total     0.058598                       # mshr miss rate for ReadReq accesses
system.cpu.dcache.ReadReq_avg_mshr_miss_latency::.switch_cpus.data 77568.593091                       # average ReadReq mshr miss latency
system.cpu.dcache.ReadReq_avg_mshr_miss_latency::total 77568.593091                       # average ReadReq mshr miss latency
system.cpu.dcache.WriteReq_hits::.switch_cpus.data      1203041                       # number of WriteReq hits
system.cpu.dcache.WriteReq_hits::total        1203041                       # number of WriteReq hits
system.cpu.dcache.WriteReq_misses::.cpu.data            1                       # number of WriteReq misses
system.cpu.dcache.WriteReq_misses::.switch_cpus.data        46552                       # number of WriteReq misses
system.cpu.dcache.WriteReq_misses::total        46553                       # number of WriteReq misses
system.cpu.dcache.WriteReq_miss_latency::.switch_cpus.data   3297194359                       # number of WriteReq miss cycles
system.cpu.dcache.WriteReq_miss_latency::total   3297194359                       # number of WriteReq miss cycles
system.cpu.dcache.WriteReq_accesses::.cpu.data            1                       # number of WriteReq accesses(hits+misses)
system.cpu.dcache.WriteReq_accesses::.switch_cpus.data      1249593                       # number of WriteReq accesses(hits+misses)
system.cpu.dcache.WriteReq_accesses::total      1249594                       # number of WriteReq accesses(hits+misses)
system.cpu.dcache.WriteReq_miss_rate::.cpu.data            1                       # miss rate for WriteReq accesses
system.cpu.dcache.WriteReq_miss_rate::.switch_cpus.data     0.037254                       # miss rate for WriteReq accesses
system.cpu.dcache.WriteReq_miss_rate::total     0.037255                       # miss rate for WriteReq accesses
system.cpu.dcache.WriteReq_avg_miss_latency::.switch_cpus.data 70828.199841                       # average WriteReq miss latency
system.cpu.dcache.WriteReq_avg_miss_latency::total 70826.678388                       # average WriteReq miss latency
system.cpu.dcache.WriteReq_mshr_hits::.switch_cpus.data          251                       # number of WriteReq MSHR hits
system.cpu.dcache.WriteReq_mshr_hits::total          251                       # number of WriteReq MSHR hits
system.cpu.dcache.WriteReq_mshr_misses::.switch_cpus.data        46301                       # number of WriteReq MSHR misses
system.cpu.dcache.WriteReq_mshr_misses::total        46301                       # number of WriteReq MSHR misses
system.cpu.dcache.WriteReq_mshr_miss_latency::.switch_cpus.data   3239281369                       # number of WriteReq MSHR miss cycles
system.cpu.dcache.WriteReq_mshr_miss_latency::total   3239281369                       # number of WriteReq MSHR miss cycles
system.cpu.dcache.WriteReq_mshr_miss_rate::.switch_cpus.data     0.037053                       # mshr miss rate for WriteReq accesses
system.cpu.dcache.WriteReq_mshr_miss_rate::total     0.037053                       # mshr miss rate for WriteReq accesses
system.cpu.dcache.WriteReq_avg_mshr_miss_latency::.switch_cpus.data 69961.369495                       # average WriteReq mshr miss latency
system.cpu.dcache.WriteReq_avg_mshr_miss_latency::total 69961.369495                       # average WriteReq mshr miss latency
system.cpu.dcache.SoftPFReq_hits::.switch_cpus.data        16053                       # number of SoftPFReq hits
system.cpu.dcache.SoftPFReq_hits::total         16053                       # number of SoftPFReq hits
system.cpu.dcache.SoftPFReq_misses::.switch_cpus.data          347                       # number of SoftPFReq misses
system.cpu.dcache.SoftPFReq_misses::total          347                       # number of SoftPFReq misses
system.cpu.dcache.SoftPFReq_accesses::.switch_cpus.data        16400                       # number of SoftPFReq accesses(hits+misses)
system.cpu.dcache.SoftPFReq_accesses::total        16400                       # number of SoftPFReq accesses(hits+misses)
system.cpu.dcache.SoftPFReq_miss_rate::.switch_cpus.data     0.021159                       # miss rate for SoftPFReq accesses
system.cpu.dcache.SoftPFReq_miss_rate::total     0.021159                       # miss rate for SoftPFReq accesses
system.cpu.dcache.SoftPFReq_mshr_misses::.switch_cpus.data          159                       # number of SoftPFReq MSHR misses
system.cpu.dcache.SoftPFReq_mshr_misses::total          159                       # number of SoftPFReq MSHR misses
system.cpu.dcache.SoftPFReq_mshr_miss_latency::.switch_cpus.data      8836500                       # number of SoftPFReq MSHR miss cycles
system.cpu.dcache.SoftPFReq_mshr_miss_latency::total      8836500                       # number of SoftPFReq MSHR miss cycles
system.cpu.dcache.SoftPFReq_mshr_miss_rate::.switch_cpus.data     0.009695                       # mshr miss rate for SoftPFReq accesses
system.cpu.dcache.SoftPFReq_mshr_miss_rate::total     0.009695                       # mshr miss rate for SoftPFReq accesses
system.cpu.dcache.SoftPFReq_avg_mshr_miss_latency::.switch_cpus.data 55575.471698                       # average SoftPFReq mshr miss latency
system.cpu.dcache.SoftPFReq_avg_mshr_miss_latency::total 55575.471698                       # average SoftPFReq mshr miss latency
system.cpu.dcache.tags.pwrStateResidencyTicks::UNDEFINED 270804227144000                       # Cumulative time (in ticks) in various power states
system.cpu.dcache.tags.tagsinuse             0.139587                       # Cycle average of tags in use
system.cpu.dcache.tags.total_refs            11031013                       # Total number of references to valid blocks.
system.cpu.dcache.tags.sampled_refs            754077                       # Sample count of references to valid blocks.
system.cpu.dcache.tags.avg_refs             14.628497                       # Average number of references to valid blocks.
system.cpu.dcache.tags.warmup_cycle      270767280054500                       # Cycle when the warmup percentage was hit.
system.cpu.dcache.tags.occ_blocks::.cpu.data     0.000002                       # Average occupied blocks per requestor
system.cpu.dcache.tags.occ_blocks::.switch_cpus.data     0.139585                       # Average occupied blocks per requestor
system.cpu.dcache.tags.occ_percent::.cpu.data     0.000000                       # Average percentage of cache occupancy
system.cpu.dcache.tags.occ_percent::.switch_cpus.data     0.000136                       # Average percentage of cache occupancy
system.cpu.dcache.tags.occ_percent::total     0.000136                       # Average percentage of cache occupancy
system.cpu.dcache.tags.occ_task_id_blocks::1024         1024                       # Occupied blocks per task id
system.cpu.dcache.tags.age_task_id_blocks_1024::0          198                       # Occupied blocks per task id
system.cpu.dcache.tags.age_task_id_blocks_1024::1          823                       # Occupied blocks per task id
system.cpu.dcache.tags.age_task_id_blocks_1024::3            3                       # Occupied blocks per task id
system.cpu.dcache.tags.occ_task_id_percent::1024            1                       # Percentage of cache occupancy per task id
system.cpu.dcache.tags.tag_accesses          27437427                       # Number of tag accesses
system.cpu.dcache.tags.data_accesses         27437427                       # Number of data accesses

---------- End Simulation Statistics   ----------
