
---------- Begin Simulation Statistics ----------
final_tick                               270777478894500                       # Number of ticks from beginning of simulation (restored from checkpoints and never reset)
host_inst_rate                                 759124                       # Simulator instruction rate (inst/s)
host_mem_usage                                 803000                       # Number of bytes of host memory used
host_op_rate                                  1267691                       # Simulator op (including micro ops) rate (op/s)
host_seconds                                    13.17                       # Real time elapsed on the host
host_tick_rate                              774205081                       # Simulator tick rate (ticks/s)
sim_freq                                 1000000000000                       # Frequency of simulated ticks
sim_insts                                    10000001                       # Number of instructions simulated
sim_ops                                      16699635                       # Number of ops (including micro ops) simulated
sim_seconds                                  0.010199                       # Number of seconds simulated
sim_ticks                                 10198840750                       # Number of ticks simulated
system.cpu.branchPred.BTBCorrect                    0                       # Number of correct BTB predictions (this stat may not work properly.
system.cpu.branchPred.BTBHitPct                   nan                       # BTB Hit Percentage
system.cpu.branchPred.BTBHits                       0                       # Number of BTB hits
system.cpu.branchPred.BTBLookups                    0                       # Number of BTB lookups
system.cpu.branchPred.RASInCorrect                  0                       # Number of incorrect RAS predictions.
system.cpu.branchPred.condIncorrect                 0                       # Number of conditional branches incorrect
system.cpu.branchPred.condPredicted                 0                       # Number of conditional branches predicted
system.cpu.branchPred.indirectHits                  0                       # Number of indirect target hits.
system.cpu.branchPred.indirectLookups               0                       # Number of indirect predictor lookups.
system.cpu.branchPred.indirectMisses                0                       # Number of indirect misses.
system.cpu.branchPred.lookups                       1                       # Number of BP lookups
system.cpu.branchPred.usedRAS                       1                       # Number of times the RAS was used to get a target.
system.cpu.branchPredindirectMispredicted            0                       # Number of mispredicted indirect branches.
system.cpu.cc_regfile_reads                         5                       # number of cc regfile reads
system.cpu.commit.amos                              0                       # Number of atomic instructions committed
system.cpu.commit.branchMispredicts                22                       # The number of times a branch was mispredicted
system.cpu.commit.branches                          0                       # Number of branches committed
system.cpu.commit.bw_lim_events                     0                       # number cycles where commit BW limit reached
system.cpu.commit.commitSquashedInsts              35                       # The number of squashed insts skipped by commit
system.cpu.commit.committedInsts                    1                       # Number of instructions committed
system.cpu.commit.committedOps                      3                       # Number of ops (including micro ops) committed
system.cpu.commit.committed_per_cycle::samples          186                       # Number of insts commited each cycle
system.cpu.commit.committed_per_cycle::mean     0.016129                       # Number of insts commited each cycle
system.cpu.commit.committed_per_cycle::stdev     0.163602                       # Number of insts commited each cycle
system.cpu.commit.committed_per_cycle::underflows            0      0.00%      0.00% # Number of insts commited each cycle
system.cpu.commit.committed_per_cycle::0          184     98.92%     98.92% # Number of insts commited each cycle
system.cpu.commit.committed_per_cycle::1            1      0.54%     99.46% # Number of insts commited each cycle
system.cpu.commit.committed_per_cycle::2            1      0.54%    100.00% # Number of insts commited each cycle
system.cpu.commit.committed_per_cycle::3            0      0.00%    100.00% # Number of insts commited each cycle
system.cpu.commit.committed_per_cycle::4            0      0.00%    100.00% # Number of insts commited each cycle
system.cpu.commit.committed_per_cycle::5            0      0.00%    100.00% # Number of insts commited each cycle
system.cpu.commit.committed_per_cycle::6            0      0.00%    100.00% # Number of insts commited each cycle
system.cpu.commit.committed_per_cycle::7            0      0.00%    100.00% # Number of insts commited each cycle
system.cpu.commit.committed_per_cycle::8            0      0.00%    100.00% # Number of insts commited each cycle
system.cpu.commit.committed_per_cycle::overflows            0      0.00%    100.00% # Number of insts commited each cycle
system.cpu.commit.committed_per_cycle::min_value            0                       # Number of insts commited each cycle
system.cpu.commit.committed_per_cycle::max_value            2                       # Number of insts commited each cycle
system.cpu.commit.committed_per_cycle::total          186                       # Number of insts commited each cycle
system.cpu.commit.fp_insts                          0                       # Number of committed floating point instructions.
system.cpu.commit.function_calls                    0                       # Number of function calls committed.
system.cpu.commit.int_insts                         3                       # Number of committed integer instructions.
system.cpu.commit.loads                             1                       # Number of loads committed
system.cpu.commit.membars                           0                       # Number of memory barriers committed
system.cpu.commit.op_class_0::No_OpClass            0      0.00%      0.00% # Class of committed instruction
system.cpu.commit.op_class_0::IntAlu                2     66.67%     66.67% # Class of committed instruction
system.cpu.commit.op_class_0::IntMult               0      0.00%     66.67% # Class of committed instruction
system.cpu.commit.op_class_0::IntDiv                0      0.00%     66.67% # Class of committed instruction
system.cpu.commit.op_class_0::FloatAdd              0      0.00%     66.67% # Class of committed instruction
system.cpu.commit.op_class_0::FloatCmp              0      0.00%     66.67% # Class of committed instruction
system.cpu.commit.op_class_0::FloatCvt              0      0.00%     66.67% # Class of committed instruction
system.cpu.commit.op_class_0::FloatMult             0      0.00%     66.67% # Class of committed instruction
system.cpu.commit.op_class_0::FloatMultAcc            0      0.00%     66.67% # Class of committed instruction
system.cpu.commit.op_class_0::FloatDiv              0      0.00%     66.67% # Class of committed instruction
system.cpu.commit.op_class_0::FloatMisc             0      0.00%     66.67% # Class of committed instruction
system.cpu.commit.op_class_0::FloatSqrt             0      0.00%     66.67% # Class of committed instruction
system.cpu.commit.op_class_0::SimdAdd               0      0.00%     66.67% # Class of committed instruction
system.cpu.commit.op_class_0::SimdAddAcc            0      0.00%     66.67% # Class of committed instruction
system.cpu.commit.op_class_0::SimdAlu               0      0.00%     66.67% # Class of committed instruction
system.cpu.commit.op_class_0::SimdCmp               0      0.00%     66.67% # Class of committed instruction
system.cpu.commit.op_class_0::SimdCvt               0      0.00%     66.67% # Class of committed instruction
system.cpu.commit.op_class_0::SimdMisc              0      0.00%     66.67% # Class of committed instruction
system.cpu.commit.op_class_0::SimdMult              0      0.00%     66.67% # Class of committed instruction
system.cpu.commit.op_class_0::SimdMultAcc            0      0.00%     66.67% # Class of committed instruction
system.cpu.commit.op_class_0::SimdShift             0      0.00%     66.67% # Class of committed instruction
system.cpu.commit.op_class_0::SimdShiftAcc            0      0.00%     66.67% # Class of committed instruction
system.cpu.commit.op_class_0::SimdDiv               0      0.00%     66.67% # Class of committed instruction
system.cpu.commit.op_class_0::SimdSqrt              0      0.00%     66.67% # Class of committed instruction
system.cpu.commit.op_class_0::SimdFloatAdd            0      0.00%     66.67% # Class of committed instruction
system.cpu.commit.op_class_0::SimdFloatAlu            0      0.00%     66.67% # Class of committed instruction
system.cpu.commit.op_class_0::SimdFloatCmp            0      0.00%     66.67% # Class of committed instruction
system.cpu.commit.op_class_0::SimdFloatCvt            0      0.00%     66.67% # Class of committed instruction
system.cpu.commit.op_class_0::SimdFloatDiv            0      0.00%     66.67% # Class of committed instruction
system.cpu.commit.op_class_0::SimdFloatMisc            0      0.00%     66.67% # Class of committed instruction
system.cpu.commit.op_class_0::SimdFloatMult            0      0.00%     66.67% # Class of committed instruction
system.cpu.commit.op_class_0::SimdFloatMultAcc            0      0.00%     66.67% # Class of committed instruction
system.cpu.commit.op_class_0::SimdFloatSqrt            0      0.00%     66.67% # Class of committed instruction
system.cpu.commit.op_class_0::SimdReduceAdd            0      0.00%     66.67% # Class of committed instruction
system.cpu.commit.op_class_0::SimdReduceAlu            0      0.00%     66.67% # Class of committed instruction
system.cpu.commit.op_class_0::SimdReduceCmp            0      0.00%     66.67% # Class of committed instruction
system.cpu.commit.op_class_0::SimdFloatReduceAdd            0      0.00%     66.67% # Class of committed instruction
system.cpu.commit.op_class_0::SimdFloatReduceCmp            0      0.00%     66.67% # Class of committed instruction
system.cpu.commit.op_class_0::SimdAes               0      0.00%     66.67% # Class of committed instruction
system.cpu.commit.op_class_0::SimdAesMix            0      0.00%     66.67% # Class of committed instruction
system.cpu.commit.op_class_0::SimdSha1Hash            0      0.00%     66.67% # Class of committed instruction
system.cpu.commit.op_class_0::SimdSha1Hash2            0      0.00%     66.67% # Class of committed instruction
system.cpu.commit.op_class_0::SimdSha256Hash            0      0.00%     66.67% # Class of committed instruction
system.cpu.commit.op_class_0::SimdSha256Hash2            0      0.00%     66.67% # Class of committed instruction
system.cpu.commit.op_class_0::SimdShaSigma2            0      0.00%     66.67% # Class of committed instruction
system.cpu.commit.op_class_0::SimdShaSigma3            0      0.00%     66.67% # Class of committed instruction
system.cpu.commit.op_class_0::SimdPredAlu            0      0.00%     66.67% # Class of committed instruction
system.cpu.commit.op_class_0::MemRead               1     33.33%    100.00% # Class of committed instruction
system.cpu.commit.op_class_0::MemWrite              0      0.00%    100.00% # Class of committed instruction
system.cpu.commit.op_class_0::FloatMemRead            0      0.00%    100.00% # Class of committed instruction
system.cpu.commit.op_class_0::FloatMemWrite            0      0.00%    100.00% # Class of committed instruction
system.cpu.commit.op_class_0::IprAccess             0      0.00%    100.00% # Class of committed instruction
system.cpu.commit.op_class_0::InstPrefetch            0      0.00%    100.00% # Class of committed instruction
system.cpu.commit.op_class_0::total                 3                       # Class of committed instruction
system.cpu.commit.refs                              1                       # Number of memory references committed
system.cpu.commit.swp_count                         0                       # Number of s/w prefetches committed
system.cpu.commit.vec_insts                         0                       # Number of committed Vector instructions.
system.cpu.committedInsts                           1                       # Number of Instructions Simulated
system.cpu.committedOps                             3                       # Number of Ops (including micro ops) Simulated
system.cpu.cpi                             365.000000                       # CPI: Cycles Per Instruction
system.cpu.cpi_total                       365.000000                       # CPI: Total CPI of All Threads
system.cpu.decode.BlockedCycles                     4                       # Number of cycles decode is blocked
system.cpu.decode.DecodedInsts                     38                       # Number of instructions handled by decode
system.cpu.decode.IdleCycles                      162                       # Number of cycles decode is idle
system.cpu.decode.RunCycles                        22                       # Number of cycles decode is running
system.cpu.decode.SquashCycles                     23                       # Number of cycles decode is squashing
system.cpu.dtb.rdAccesses                           5                       # TLB accesses on read requests
system.cpu.dtb.rdMisses                             0                       # TLB misses on read requests
system.cpu.dtb.wrAccesses                           0                       # TLB accesses on write requests
system.cpu.dtb.wrMisses                             0                       # TLB misses on write requests
system.cpu.fetch.Branches                           1                       # Number of branches that fetch encountered
system.cpu.fetch.CacheLines                         1                       # Number of cache lines fetched
system.cpu.fetch.Cycles                             2                       # Number of cycles fetch has run and was not squashing or blocked
system.cpu.fetch.Insts                              5                       # Number of instructions fetch has processed
system.cpu.fetch.MiscStallCycles                   22                       # Number of cycles fetch has spent waiting on interrupts, or bad addresses, or out of MSHRs
system.cpu.fetch.PendingDrainCycles                 9                       # Number of cycles fetch has spent waiting on pipes to drain
system.cpu.fetch.PendingTrapStallCycles           136                       # Number of stall cycles due to pending traps
system.cpu.fetch.SquashCycles                      45                       # Number of cycles fetch has spent squashing
system.cpu.fetch.branchRate                  0.002740                       # Number of branch fetches per cycle
system.cpu.fetch.icacheStallCycles                 22                       # Number of cycles fetch is stalled on an Icache miss
system.cpu.fetch.predictedBranches                  1                       # Number of branches that fetch has predicted taken
system.cpu.fetch.rate                        0.013699                       # Number of inst fetches per cycle
system.cpu.fetch.rateDist::samples                213                       # Number of instructions fetched each cycle (Total)
system.cpu.fetch.rateDist::mean              0.070423                       # Number of instructions fetched each cycle (Total)
system.cpu.fetch.rateDist::stdev             0.726661                       # Number of instructions fetched each cycle (Total)
system.cpu.fetch.rateDist::underflows               0      0.00%      0.00% # Number of instructions fetched each cycle (Total)
system.cpu.fetch.rateDist::0                      211     99.06%     99.06% # Number of instructions fetched each cycle (Total)
system.cpu.fetch.rateDist::1                        0      0.00%     99.06% # Number of instructions fetched each cycle (Total)
system.cpu.fetch.rateDist::2                        0      0.00%     99.06% # Number of instructions fetched each cycle (Total)
system.cpu.fetch.rateDist::3                        0      0.00%     99.06% # Number of instructions fetched each cycle (Total)
system.cpu.fetch.rateDist::4                        0      0.00%     99.06% # Number of instructions fetched each cycle (Total)
system.cpu.fetch.rateDist::5                        0      0.00%     99.06% # Number of instructions fetched each cycle (Total)
system.cpu.fetch.rateDist::6                        0      0.00%     99.06% # Number of instructions fetched each cycle (Total)
system.cpu.fetch.rateDist::7                        1      0.47%     99.53% # Number of instructions fetched each cycle (Total)
system.cpu.fetch.rateDist::8                        1      0.47%    100.00% # Number of instructions fetched each cycle (Total)
system.cpu.fetch.rateDist::overflows                0      0.00%    100.00% # Number of instructions fetched each cycle (Total)
system.cpu.fetch.rateDist::min_value                0                       # Number of instructions fetched each cycle (Total)
system.cpu.fetch.rateDist::max_value                8                       # Number of instructions fetched each cycle (Total)
system.cpu.fetch.rateDist::total                  213                       # Number of instructions fetched each cycle (Total)
system.cpu.fp_regfile_reads                        56                       # number of floating regfile reads
system.cpu.idleCycles                             152                       # Total number of cycles that the CPU has spent unscheduled due to idling
system.cpu.iew.branchMispredicts                   23                       # Number of branch mispredicts detected at execute
system.cpu.iew.exec_branches                        0                       # Number of branches executed
system.cpu.iew.exec_nop                             0                       # number of nop insts executed
system.cpu.iew.exec_rate                     0.098630                       # Inst execution rate
system.cpu.iew.exec_refs                            5                       # number of memory reference insts executed
system.cpu.iew.exec_stores                          0                       # Number of stores executed
system.cpu.iew.exec_swp                             0                       # number of swp insts executed
system.cpu.iew.iewBlockCycles                       4                       # Number of cycles IEW is blocking
system.cpu.iew.iewDispLoadInsts                     5                       # Number of dispatched load instructions
system.cpu.iew.iewDispNonSpecInsts                  0                       # Number of dispatched non-speculative instructions
system.cpu.iew.iewDispSquashedInsts                 0                       # Number of squashed instructions skipped by dispatch
system.cpu.iew.iewDispStoreInsts                    0                       # Number of dispatched store instructions
system.cpu.iew.iewDispatchedInsts                  38                       # Number of instructions dispatched to IQ
system.cpu.iew.iewExecLoadInsts                     5                       # Number of load instructions executed
system.cpu.iew.iewExecSquashedInsts                 0                       # Number of squashed instructions skipped in execute
system.cpu.iew.iewExecutedInsts                    36                       # Number of executed instructions
system.cpu.iew.iewIQFullEvents                      0                       # Number of times the IQ has become full, causing a stall
system.cpu.iew.iewIdleCycles                        0                       # Number of cycles IEW is idle
system.cpu.iew.iewLSQFullEvents                     0                       # Number of times the LSQ has become full, causing a stall
system.cpu.iew.iewSquashCycles                     23                       # Number of cycles IEW is squashing
system.cpu.iew.iewUnblockCycles                     0                       # Number of cycles IEW is unblocking
system.cpu.iew.lsq.thread0.blockedLoads             0                       # Number of blocked loads due to partial load-store forwarding
system.cpu.iew.lsq.thread0.cacheBlocked             0                       # Number of times an access to memory failed due to the cache being blocked
system.cpu.iew.lsq.thread0.forwLoads                0                       # Number of loads that had data forwarded from stores
system.cpu.iew.lsq.thread0.ignoredResponses            0                       # Number of memory responses ignored because the instruction is squashed
system.cpu.iew.lsq.thread0.invAddrLoads             0                       # Number of loads ignored due to an invalid address
system.cpu.iew.lsq.thread0.invAddrSwpfs             0                       # Number of software prefetches ignored due to an invalid address
system.cpu.iew.lsq.thread0.memOrderViolation            0                       # Number of memory ordering violations
system.cpu.iew.lsq.thread0.rescheduledLoads            0                       # Number of loads that were rescheduled
system.cpu.iew.lsq.thread0.squashedLoads            4                       # Number of loads squashed
system.cpu.iew.lsq.thread0.squashedStores            0                       # Number of stores squashed
system.cpu.iew.memOrderViolationEvents              0                       # Number of memory order violations
system.cpu.iew.predictedNotTakenIncorrect           23                       # Number of branches that were predicted not taken incorrectly
system.cpu.iew.predictedTakenIncorrect              0                       # Number of branches that were predicted taken incorrectly
system.cpu.iew.wb_consumers                        11                       # num instructions consuming a value
system.cpu.iew.wb_count                            11                       # cumulative count of insts written-back
system.cpu.iew.wb_fanout                     0.636364                       # average fanout of values written-back
system.cpu.iew.wb_producers                         7                       # num instructions producing a value
system.cpu.iew.wb_rate                       0.030137                       # insts written-back per cycle
system.cpu.iew.wb_sent                             34                       # cumulative count of insts sent to commit
system.cpu.int_regfile_reads                       62                       # number of integer regfile reads
system.cpu.int_regfile_writes                      11                       # number of integer regfile writes
system.cpu.ipc                               0.002740                       # IPC: Instructions Per Cycle
system.cpu.ipc_total                         0.002740                       # IPC: Total IPC of All Threads
system.cpu.iq.FU_type_0::No_OpClass                23     63.89%     63.89% # Type of FU issued
system.cpu.iq.FU_type_0::IntAlu                     8     22.22%     86.11% # Type of FU issued
system.cpu.iq.FU_type_0::IntMult                    0      0.00%     86.11% # Type of FU issued
system.cpu.iq.FU_type_0::IntDiv                     0      0.00%     86.11% # Type of FU issued
system.cpu.iq.FU_type_0::FloatAdd                   0      0.00%     86.11% # Type of FU issued
system.cpu.iq.FU_type_0::FloatCmp                   0      0.00%     86.11% # Type of FU issued
system.cpu.iq.FU_type_0::FloatCvt                   0      0.00%     86.11% # Type of FU issued
system.cpu.iq.FU_type_0::FloatMult                  0      0.00%     86.11% # Type of FU issued
system.cpu.iq.FU_type_0::FloatMultAcc               0      0.00%     86.11% # Type of FU issued
system.cpu.iq.FU_type_0::FloatDiv                   0      0.00%     86.11% # Type of FU issued
system.cpu.iq.FU_type_0::FloatMisc                  0      0.00%     86.11% # Type of FU issued
system.cpu.iq.FU_type_0::FloatSqrt                  0      0.00%     86.11% # Type of FU issued
system.cpu.iq.FU_type_0::SimdAdd                    0      0.00%     86.11% # Type of FU issued
system.cpu.iq.FU_type_0::SimdAddAcc                 0      0.00%     86.11% # Type of FU issued
system.cpu.iq.FU_type_0::SimdAlu                    0      0.00%     86.11% # Type of FU issued
system.cpu.iq.FU_type_0::SimdCmp                    0      0.00%     86.11% # Type of FU issued
system.cpu.iq.FU_type_0::SimdCvt                    0      0.00%     86.11% # Type of FU issued
system.cpu.iq.FU_type_0::SimdMisc                   0      0.00%     86.11% # Type of FU issued
system.cpu.iq.FU_type_0::SimdMult                   0      0.00%     86.11% # Type of FU issued
system.cpu.iq.FU_type_0::SimdMultAcc                0      0.00%     86.11% # Type of FU issued
system.cpu.iq.FU_type_0::SimdShift                  0      0.00%     86.11% # Type of FU issued
system.cpu.iq.FU_type_0::SimdShiftAcc               0      0.00%     86.11% # Type of FU issued
system.cpu.iq.FU_type_0::SimdDiv                    0      0.00%     86.11% # Type of FU issued
system.cpu.iq.FU_type_0::SimdSqrt                   0      0.00%     86.11% # Type of FU issued
system.cpu.iq.FU_type_0::SimdFloatAdd               0      0.00%     86.11% # Type of FU issued
system.cpu.iq.FU_type_0::SimdFloatAlu               0      0.00%     86.11% # Type of FU issued
system.cpu.iq.FU_type_0::SimdFloatCmp               0      0.00%     86.11% # Type of FU issued
system.cpu.iq.FU_type_0::SimdFloatCvt               0      0.00%     86.11% # Type of FU issued
system.cpu.iq.FU_type_0::SimdFloatDiv               0      0.00%     86.11% # Type of FU issued
system.cpu.iq.FU_type_0::SimdFloatMisc              0      0.00%     86.11% # Type of FU issued
system.cpu.iq.FU_type_0::SimdFloatMult              0      0.00%     86.11% # Type of FU issued
system.cpu.iq.FU_type_0::SimdFloatMultAcc            0      0.00%     86.11% # Type of FU issued
system.cpu.iq.FU_type_0::SimdFloatSqrt              0      0.00%     86.11% # Type of FU issued
system.cpu.iq.FU_type_0::SimdReduceAdd              0      0.00%     86.11% # Type of FU issued
system.cpu.iq.FU_type_0::SimdReduceAlu              0      0.00%     86.11% # Type of FU issued
system.cpu.iq.FU_type_0::SimdReduceCmp              0      0.00%     86.11% # Type of FU issued
system.cpu.iq.FU_type_0::SimdFloatReduceAdd            0      0.00%     86.11% # Type of FU issued
system.cpu.iq.FU_type_0::SimdFloatReduceCmp            0      0.00%     86.11% # Type of FU issued
system.cpu.iq.FU_type_0::SimdAes                    0      0.00%     86.11% # Type of FU issued
system.cpu.iq.FU_type_0::SimdAesMix                 0      0.00%     86.11% # Type of FU issued
system.cpu.iq.FU_type_0::SimdSha1Hash               0      0.00%     86.11% # Type of FU issued
system.cpu.iq.FU_type_0::SimdSha1Hash2              0      0.00%     86.11% # Type of FU issued
system.cpu.iq.FU_type_0::SimdSha256Hash             0      0.00%     86.11% # Type of FU issued
system.cpu.iq.FU_type_0::SimdSha256Hash2            0      0.00%     86.11% # Type of FU issued
system.cpu.iq.FU_type_0::SimdShaSigma2              0      0.00%     86.11% # Type of FU issued
system.cpu.iq.FU_type_0::SimdShaSigma3              0      0.00%     86.11% # Type of FU issued
system.cpu.iq.FU_type_0::SimdPredAlu                0      0.00%     86.11% # Type of FU issued
system.cpu.iq.FU_type_0::MemRead                    5     13.89%    100.00% # Type of FU issued
system.cpu.iq.FU_type_0::MemWrite                   0      0.00%    100.00% # Type of FU issued
system.cpu.iq.FU_type_0::FloatMemRead               0      0.00%    100.00% # Type of FU issued
system.cpu.iq.FU_type_0::FloatMemWrite              0      0.00%    100.00% # Type of FU issued
system.cpu.iq.FU_type_0::IprAccess                  0      0.00%    100.00% # Type of FU issued
system.cpu.iq.FU_type_0::InstPrefetch               0      0.00%    100.00% # Type of FU issued
system.cpu.iq.FU_type_0::total                     36                       # Type of FU issued
system.cpu.iq.fp_alu_accesses                       0                       # Number of floating point alu accesses
system.cpu.iq.fp_inst_queue_reads                   0                       # Number of floating instruction queue reads
system.cpu.iq.fp_inst_queue_wakeup_accesses            0                       # Number of floating instruction queue wakeup accesses
system.cpu.iq.fp_inst_queue_writes                  0                       # Number of floating instruction queue writes
system.cpu.iq.fu_busy_cnt                           0                       # FU busy when requested
system.cpu.iq.fu_busy_rate                          0                       # FU busy rate (busy events/executed inst)
system.cpu.iq.fu_full::No_OpClass                   0                       # attempts to use FU when none available
system.cpu.iq.fu_full::IntAlu                       0                       # attempts to use FU when none available
system.cpu.iq.fu_full::IntMult                      0                       # attempts to use FU when none available
system.cpu.iq.fu_full::IntDiv                       0                       # attempts to use FU when none available
system.cpu.iq.fu_full::FloatAdd                     0                       # attempts to use FU when none available
system.cpu.iq.fu_full::FloatCmp                     0                       # attempts to use FU when none available
system.cpu.iq.fu_full::FloatCvt                     0                       # attempts to use FU when none available
system.cpu.iq.fu_full::FloatMult                    0                       # attempts to use FU when none available
system.cpu.iq.fu_full::FloatMultAcc                 0                       # attempts to use FU when none available
system.cpu.iq.fu_full::FloatDiv                     0                       # attempts to use FU when none available
system.cpu.iq.fu_full::FloatMisc                    0                       # attempts to use FU when none available
system.cpu.iq.fu_full::FloatSqrt                    0                       # attempts to use FU when none available
system.cpu.iq.fu_full::SimdAdd                      0                       # attempts to use FU when none available
system.cpu.iq.fu_full::SimdAddAcc                   0                       # attempts to use FU when none available
system.cpu.iq.fu_full::SimdAlu                      0                       # attempts to use FU when none available
system.cpu.iq.fu_full::SimdCmp                      0                       # attempts to use FU when none available
system.cpu.iq.fu_full::SimdCvt                      0                       # attempts to use FU when none available
system.cpu.iq.fu_full::SimdMisc                     0                       # attempts to use FU when none available
system.cpu.iq.fu_full::SimdMult                     0                       # attempts to use FU when none available
system.cpu.iq.fu_full::SimdMultAcc                  0                       # attempts to use FU when none available
system.cpu.iq.fu_full::SimdShift                    0                       # attempts to use FU when none available
system.cpu.iq.fu_full::SimdShiftAcc                 0                       # attempts to use FU when none available
system.cpu.iq.fu_full::SimdDiv                      0                       # attempts to use FU when none available
system.cpu.iq.fu_full::SimdSqrt                     0                       # attempts to use FU when none available
system.cpu.iq.fu_full::SimdFloatAdd                 0                       # attempts to use FU when none available
system.cpu.iq.fu_full::SimdFloatAlu                 0                       # attempts to use FU when none available
system.cpu.iq.fu_full::SimdFloatCmp                 0                       # attempts to use FU when none available
system.cpu.iq.fu_full::SimdFloatCvt                 0                       # attempts to use FU when none available
system.cpu.iq.fu_full::SimdFloatDiv                 0                       # attempts to use FU when none available
system.cpu.iq.fu_full::SimdFloatMisc                0                       # attempts to use FU when none available
system.cpu.iq.fu_full::SimdFloatMult                0                       # attempts to use FU when none available
system.cpu.iq.fu_full::SimdFloatMultAcc             0                       # attempts to use FU when none available
system.cpu.iq.fu_full::SimdFloatSqrt                0                       # attempts to use FU when none available
system.cpu.iq.fu_full::SimdReduceAdd                0                       # attempts to use FU when none available
system.cpu.iq.fu_full::SimdReduceAlu                0                       # attempts to use FU when none available
system.cpu.iq.fu_full::SimdReduceCmp                0                       # attempts to use FU when none available
system.cpu.iq.fu_full::SimdFloatReduceAdd            0                       # attempts to use FU when none available
system.cpu.iq.fu_full::SimdFloatReduceCmp            0                       # attempts to use FU when none available
system.cpu.iq.fu_full::SimdAes                      0                       # attempts to use FU when none available
system.cpu.iq.fu_full::SimdAesMix                   0                       # attempts to use FU when none available
system.cpu.iq.fu_full::SimdSha1Hash                 0                       # attempts to use FU when none available
system.cpu.iq.fu_full::SimdSha1Hash2                0                       # attempts to use FU when none available
system.cpu.iq.fu_full::SimdSha256Hash               0                       # attempts to use FU when none available
system.cpu.iq.fu_full::SimdSha256Hash2              0                       # attempts to use FU when none available
system.cpu.iq.fu_full::SimdShaSigma2                0                       # attempts to use FU when none available
system.cpu.iq.fu_full::SimdShaSigma3                0                       # attempts to use FU when none available
system.cpu.iq.fu_full::SimdPredAlu                  0                       # attempts to use FU when none available
system.cpu.iq.fu_full::MemRead                      0                       # attempts to use FU when none available
system.cpu.iq.fu_full::MemWrite                     0                       # attempts to use FU when none available
system.cpu.iq.fu_full::FloatMemRead                 0                       # attempts to use FU when none available
system.cpu.iq.fu_full::FloatMemWrite                0                       # attempts to use FU when none available
system.cpu.iq.fu_full::IprAccess                    0                       # attempts to use FU when none available
system.cpu.iq.fu_full::InstPrefetch                 0                       # attempts to use FU when none available
system.cpu.iq.int_alu_accesses                     13                       # Number of integer alu accesses
system.cpu.iq.int_inst_queue_reads                285                       # Number of integer instruction queue reads
system.cpu.iq.int_inst_queue_wakeup_accesses           11                       # Number of integer instruction queue wakeup accesses
system.cpu.iq.int_inst_queue_writes                73                       # Number of integer instruction queue writes
system.cpu.iq.iqInstsAdded                         38                       # Number of instructions added to the IQ (excludes non-spec)
system.cpu.iq.iqInstsIssued                        36                       # Number of instructions issued
system.cpu.iq.iqSquashedInstsExamined              35                       # Number of squashed instructions iterated over during squash; mainly for profiling
system.cpu.iq.iqSquashedOperandsExamined           11                       # Number of squashed operands that are examined and possibly removed from graph
system.cpu.iq.issued_per_cycle::samples           213                       # Number of insts issued each cycle
system.cpu.iq.issued_per_cycle::mean         0.169014                       # Number of insts issued each cycle
system.cpu.iq.issued_per_cycle::stdev        0.465384                       # Number of insts issued each cycle
system.cpu.iq.issued_per_cycle::underflows            0      0.00%      0.00% # Number of insts issued each cycle
system.cpu.iq.issued_per_cycle::0                 184     86.38%     86.38% # Number of insts issued each cycle
system.cpu.iq.issued_per_cycle::1                  23     10.80%     97.18% # Number of insts issued each cycle
system.cpu.iq.issued_per_cycle::2                   5      2.35%     99.53% # Number of insts issued each cycle
system.cpu.iq.issued_per_cycle::3                   1      0.47%    100.00% # Number of insts issued each cycle
system.cpu.iq.issued_per_cycle::4                   0      0.00%    100.00% # Number of insts issued each cycle
system.cpu.iq.issued_per_cycle::5                   0      0.00%    100.00% # Number of insts issued each cycle
system.cpu.iq.issued_per_cycle::6                   0      0.00%    100.00% # Number of insts issued each cycle
system.cpu.iq.issued_per_cycle::7                   0      0.00%    100.00% # Number of insts issued each cycle
system.cpu.iq.issued_per_cycle::8                   0      0.00%    100.00% # Number of insts issued each cycle
system.cpu.iq.issued_per_cycle::overflows            0      0.00%    100.00% # Number of insts issued each cycle
system.cpu.iq.issued_per_cycle::min_value            0                       # Number of insts issued each cycle
system.cpu.iq.issued_per_cycle::max_value            3                       # Number of insts issued each cycle
system.cpu.iq.issued_per_cycle::total             213                       # Number of insts issued each cycle
system.cpu.iq.rate                           0.098630                       # Inst issue rate
system.cpu.iq.vec_alu_accesses                      0                       # Number of vector alu accesses
system.cpu.iq.vec_inst_queue_reads                  0                       # Number of vector instruction queue reads
system.cpu.iq.vec_inst_queue_wakeup_accesses            0                       # Number of vector instruction queue wakeup accesses
system.cpu.iq.vec_inst_queue_writes                 0                       # Number of vector instruction queue writes
system.cpu.itb.rdAccesses                           0                       # TLB accesses on read requests
system.cpu.itb.rdMisses                             0                       # TLB misses on read requests
system.cpu.itb.wrAccesses                          24                       # TLB accesses on write requests
system.cpu.itb.wrMisses                            23                       # TLB misses on write requests
system.cpu.memDep0.conflictingLoads                 0                       # Number of conflicting loads.
system.cpu.memDep0.conflictingStores                0                       # Number of conflicting stores.
system.cpu.memDep0.insertedLoads                    5                       # Number of loads inserted to the mem dependence unit.
system.cpu.memDep0.insertedStores                   0                       # Number of stores inserted to the mem dependence unit.
system.cpu.misc_regfile_reads                       6                       # number of misc regfile reads
system.cpu.numCycles                              365                       # number of cpu cycles simulated
system.cpu.numWorkItemsCompleted                    0                       # number of work items this cpu completed
system.cpu.numWorkItemsStarted                      0                       # number of work items this cpu started
system.cpu.rename.BlockCycles                       4                       # Number of cycles rename is blocking
system.cpu.rename.CommittedMaps                     3                       # Number of HB maps that are committed
system.cpu.rename.IdleCycles                      162                       # Number of cycles rename is idle
system.cpu.rename.RenameLookups                    34                       # Number of register rename lookups that rename has made
system.cpu.rename.RenamedInsts                     38                       # Number of instructions processed by rename
system.cpu.rename.RenamedOperands                  14                       # Number of destination operands rename has renamed
system.cpu.rename.RunCycles                        22                       # Number of cycles rename is running
system.cpu.rename.SquashCycles                     23                       # Number of cycles rename is squashing
system.cpu.rename.UndoneMaps                       11                       # Number of HB maps that are undone due to squashing
system.cpu.rename.int_rename_lookups               28                       # Number of integer rename lookups
system.cpu.rename.serializeStallCycles              0                       # count of cycles rename stalled for serializing inst
system.cpu.rename.serializingInsts                  0                       # count of serializing insts renamed
system.cpu.rename.skidInsts                         0                       # count of insts added to the skid buffer
system.cpu.rename.tempSerializingInsts              0                       # count of temporary serializing insts renamed
system.cpu.rob.rob_reads                          223                       # The number of ROB reads
system.cpu.rob.rob_writes                         103                       # The number of ROB writes
system.cpu.timesIdled                               2                       # Number of times that the entire CPU went into an idle state and unscheduled itself
system.cpu.workload.numSyscalls                     0                       # Number of system calls
system.membus.snoop_filter.hit_multi_requests            0                       # Number of requests hitting in the snoop filter with multiple (>1) holders of the requested data.
system.membus.snoop_filter.hit_multi_snoops            0                       # Number of snoops hitting in the snoop filter with multiple (>1) holders of the requested data.
system.membus.snoop_filter.hit_single_requests       162354                       # Number of requests hitting in the snoop filter with a single holder of the requested data.
system.membus.snoop_filter.hit_single_snoops            0                       # Number of snoops hitting in the snoop filter with a single holder of the requested data.
system.membus.snoop_filter.tot_requests        327468                       # Total number of requests made to the snoop filter.
system.membus.snoop_filter.tot_snoops               0                       # Total number of snoops made to the snoop filter.
system.switch_cpus.Branches                   1012411                       # Number of branches fetched
system.switch_cpus.committedInsts            10000000                       # Number of instructions committed
system.switch_cpus.committedOps              16699632                       # Number of ops (including micro ops) committed
system.switch_cpus.dtb.rdAccesses             2740762                       # TLB accesses on read requests
system.switch_cpus.dtb.rdMisses                  9804                       # TLB misses on read requests
system.switch_cpus.dtb.wrAccesses              258525                       # TLB accesses on write requests
system.switch_cpus.dtb.wrMisses                   356                       # TLB misses on write requests
system.switch_cpus.idle_fraction             0.000790                       # Percentage of idle cycles
system.switch_cpus.itb.rdAccesses                   0                       # TLB accesses on read requests
system.switch_cpus.itb.rdMisses                     0                       # TLB misses on read requests
system.switch_cpus.itb.wrAccesses            13681930                       # TLB accesses on write requests
system.switch_cpus.itb.wrMisses                    32                       # TLB misses on write requests
system.switch_cpus.not_idle_fraction         0.999210                       # Percentage of non-idle cycles
system.switch_cpus.numCycles                 20381561                       # number of cpu cycles simulated
system.switch_cpus.numWorkItemsCompleted            0                       # number of work items this cpu completed
system.switch_cpus.numWorkItemsStarted              0                       # number of work items this cpu started
system.switch_cpus.num_busy_cycles       20365453.739805                       # Number of busy cycles
system.switch_cpus.num_cc_register_reads      5832017                       # number of times the CC registers were read
system.switch_cpus.num_cc_register_writes      3746597                       # number of times the CC registers were written
system.switch_cpus.num_conditional_control_insts       963627                       # number of instructions that are conditional controls
system.switch_cpus.num_fp_alu_accesses        9249997                       # Number of float alu accesses
system.switch_cpus.num_fp_insts               9249997                       # number of float instructions
system.switch_cpus.num_fp_register_reads     15848841                       # number of times the floating registers were read
system.switch_cpus.num_fp_register_writes      9126192                       # number of times the floating registers were written
system.switch_cpus.num_func_calls               36216                       # number of times a function call or return occured
system.switch_cpus.num_idle_cycles       16107.260195                       # Number of idle cycles
system.switch_cpus.num_int_alu_accesses       9386163                       # Number of integer alu accesses
system.switch_cpus.num_int_insts              9386163                       # number of integer instructions
system.switch_cpus.num_int_register_reads     18613080                       # number of times the integer registers were read
system.switch_cpus.num_int_register_writes      6254162                       # number of times the integer registers were written
system.switch_cpus.num_load_insts             2651092                       # Number of load instructions
system.switch_cpus.num_mem_refs               2909613                       # number of memory refs
system.switch_cpus.num_store_insts             258521                       # Number of store instructions
system.switch_cpus.num_vec_alu_accesses             0                       # Number of vector alu accesses
system.switch_cpus.num_vec_insts                    0                       # number of vector instructions
system.switch_cpus.num_vec_register_reads            0                       # number of times the vector registers were read
system.switch_cpus.num_vec_register_writes            0                       # number of times the vector registers were written
system.switch_cpus.op_class::No_OpClass         28068      0.17%      0.17% # Class of executed instruction
system.switch_cpus.op_class::IntAlu           7077506     42.38%     42.55% # Class of executed instruction
system.switch_cpus.op_class::IntMult               15      0.00%     42.55% # Class of executed instruction
system.switch_cpus.op_class::IntDiv                77      0.00%     42.55% # Class of executed instruction
system.switch_cpus.op_class::FloatAdd          834706      5.00%     47.55% # Class of executed instruction
system.switch_cpus.op_class::FloatCmp               0      0.00%     47.55% # Class of executed instruction
system.switch_cpus.op_class::FloatCvt               0      0.00%     47.55% # Class of executed instruction
system.switch_cpus.op_class::FloatMult              0      0.00%     47.55% # Class of executed instruction
system.switch_cpus.op_class::FloatMultAcc            0      0.00%     47.55% # Class of executed instruction
system.switch_cpus.op_class::FloatDiv               0      0.00%     47.55% # Class of executed instruction
system.switch_cpus.op_class::FloatMisc              0      0.00%     47.55% # Class of executed instruction
system.switch_cpus.op_class::FloatSqrt              0      0.00%     47.55% # Class of executed instruction
system.switch_cpus.op_class::SimdAdd                0      0.00%     47.55% # Class of executed instruction
system.switch_cpus.op_class::SimdAddAcc             0      0.00%     47.55% # Class of executed instruction
system.switch_cpus.op_class::SimdAlu          1472438      8.82%     56.37% # Class of executed instruction
system.switch_cpus.op_class::SimdCmp                0      0.00%     56.37% # Class of executed instruction
system.switch_cpus.op_class::SimdCvt                6      0.00%     56.37% # Class of executed instruction
system.switch_cpus.op_class::SimdMisc           40222      0.24%     56.61% # Class of executed instruction
system.switch_cpus.op_class::SimdMult               0      0.00%     56.61% # Class of executed instruction
system.switch_cpus.op_class::SimdMultAcc            0      0.00%     56.61% # Class of executed instruction
system.switch_cpus.op_class::SimdShift              0      0.00%     56.61% # Class of executed instruction
system.switch_cpus.op_class::SimdShiftAcc            0      0.00%     56.61% # Class of executed instruction
system.switch_cpus.op_class::SimdDiv                0      0.00%     56.61% # Class of executed instruction
system.switch_cpus.op_class::SimdSqrt               0      0.00%     56.61% # Class of executed instruction
system.switch_cpus.op_class::SimdFloatAdd      1392115      8.34%     64.94% # Class of executed instruction
system.switch_cpus.op_class::SimdFloatAlu            0      0.00%     64.94% # Class of executed instruction
system.switch_cpus.op_class::SimdFloatCmp        20118      0.12%     65.06% # Class of executed instruction
system.switch_cpus.op_class::SimdFloatCvt      1492475      8.94%     74.00% # Class of executed instruction
system.switch_cpus.op_class::SimdFloatDiv            0      0.00%     74.00% # Class of executed instruction
system.switch_cpus.op_class::SimdFloatMisc            0      0.00%     74.00% # Class of executed instruction
system.switch_cpus.op_class::SimdFloatMult      1432273      8.58%     82.58% # Class of executed instruction
system.switch_cpus.op_class::SimdFloatMultAcc            0      0.00%     82.58% # Class of executed instruction
system.switch_cpus.op_class::SimdFloatSqrt            0      0.00%     82.58% # Class of executed instruction
system.switch_cpus.op_class::SimdReduceAdd            0      0.00%     82.58% # Class of executed instruction
system.switch_cpus.op_class::SimdReduceAlu            0      0.00%     82.58% # Class of executed instruction
system.switch_cpus.op_class::SimdReduceCmp            0      0.00%     82.58% # Class of executed instruction
system.switch_cpus.op_class::SimdFloatReduceAdd            0      0.00%     82.58% # Class of executed instruction
system.switch_cpus.op_class::SimdFloatReduceCmp            0      0.00%     82.58% # Class of executed instruction
system.switch_cpus.op_class::SimdAes                0      0.00%     82.58% # Class of executed instruction
system.switch_cpus.op_class::SimdAesMix             0      0.00%     82.58% # Class of executed instruction
system.switch_cpus.op_class::SimdSha1Hash            0      0.00%     82.58% # Class of executed instruction
system.switch_cpus.op_class::SimdSha1Hash2            0      0.00%     82.58% # Class of executed instruction
system.switch_cpus.op_class::SimdSha256Hash            0      0.00%     82.58% # Class of executed instruction
system.switch_cpus.op_class::SimdSha256Hash2            0      0.00%     82.58% # Class of executed instruction
system.switch_cpus.op_class::SimdShaSigma2            0      0.00%     82.58% # Class of executed instruction
system.switch_cpus.op_class::SimdShaSigma3            0      0.00%     82.58% # Class of executed instruction
system.switch_cpus.op_class::SimdPredAlu            0      0.00%     82.58% # Class of executed instruction
system.switch_cpus.op_class::MemRead           789852      4.73%     87.31% # Class of executed instruction
system.switch_cpus.op_class::MemWrite          194916      1.17%     88.47% # Class of executed instruction
system.switch_cpus.op_class::FloatMemRead      1861240     11.15%     99.62% # Class of executed instruction
system.switch_cpus.op_class::FloatMemWrite        63605      0.38%    100.00% # Class of executed instruction
system.switch_cpus.op_class::IprAccess              0      0.00%    100.00% # Class of executed instruction
system.switch_cpus.op_class::InstPrefetch            0      0.00%    100.00% # Class of executed instruction
system.switch_cpus.op_class::total           16699632                       # Class of executed instruction
system.tol2bus.snoop_filter.hit_multi_requests            0                       # Number of requests hitting in the snoop filter with multiple (>1) holders of the requested data.
system.tol2bus.snoop_filter.hit_multi_snoops            0                       # Number of snoops hitting in the snoop filter with multiple (>1) holders of the requested data.
system.tol2bus.snoop_filter.hit_single_requests       179939                       # Number of requests hitting in the snoop filter with a single holder of the requested data.
system.tol2bus.snoop_filter.hit_single_snoops       156982                       # Number of snoops hitting in the snoop filter with a single holder of the requested data.
system.tol2bus.snoop_filter.tot_requests       361116                       # Total number of requests made to the snoop filter.
system.tol2bus.snoop_filter.tot_snoops         156982                       # Total number of snoops made to the snoop filter.
system.membus.pwrStateResidencyTicks::UNDEFINED 270777478894500                       # Cumulative time (in ticks) in various power states
system.membus.trans_dist::ReadResp             154580                       # Transaction distribution
system.membus.trans_dist::WritebackDirty        14777                       # Transaction distribution
system.membus.trans_dist::CleanEvict           147577                       # Transaction distribution
system.membus.trans_dist::ReadExReq             10534                       # Transaction distribution
system.membus.trans_dist::ReadExResp            10534                       # Transaction distribution
system.membus.trans_dist::ReadSharedReq        154580                       # Transaction distribution
system.membus.pkt_count_system.l2.mem_side::system.mem_ctrls.port       492582                       # Packet count per connected master and slave (bytes)
system.membus.pkt_count_system.l2.mem_side::total       492582                       # Packet count per connected master and slave (bytes)
system.membus.pkt_count::total                 492582                       # Packet count per connected master and slave (bytes)
system.membus.pkt_size_system.l2.mem_side::system.mem_ctrls.port     11513024                       # Cumulative packet size per connected master and slave (bytes)
system.membus.pkt_size_system.l2.mem_side::total     11513024                       # Cumulative packet size per connected master and slave (bytes)
system.membus.pkt_size::total                11513024                       # Cumulative packet size per connected master and slave (bytes)
system.membus.snoops                                0                       # Total snoops (count)
system.membus.snoopTraffic                          0                       # Total snoop traffic (bytes)
system.membus.snoop_fanout::samples            165114                       # Request fanout histogram
system.membus.snoop_fanout::mean                    0                       # Request fanout histogram
system.membus.snoop_fanout::stdev                   0                       # Request fanout histogram
system.membus.snoop_fanout::underflows              0      0.00%      0.00% # Request fanout histogram
system.membus.snoop_fanout::0                  165114    100.00%    100.00% # Request fanout histogram
system.membus.snoop_fanout::1                       0      0.00%    100.00% # Request fanout histogram
system.membus.snoop_fanout::overflows               0      0.00%    100.00% # Request fanout histogram
system.membus.snoop_fanout::min_value               0                       # Request fanout histogram
system.membus.snoop_fanout::max_value               0                       # Request fanout histogram
system.membus.snoop_fanout::total              165114                       # Request fanout histogram
system.membus.reqLayer2.occupancy                3500                       # Layer occupancy (ticks)
system.membus.reqLayer2.utilization               0.0                       # Layer utilization (%)
system.membus.respLayer1.occupancy              15500                       # Layer occupancy (ticks)
system.membus.respLayer1.utilization              0.0                       # Layer utilization (%)
system.switch_cpus.numPwrStateTransitions            1                       # Number of power state transitions
system.switch_cpus.pwrStateResidencyTicks::UNDEFINED 270767280053750                       # Cumulative time (in ticks) in various power states
system.switch_cpus.pwrStateResidencyTicks::OFF  10198840750                       # Cumulative time (in ticks) in various power states
system.switch_cpus.dtb.walker.pwrStateResidencyTicks::UNDEFINED 270777478894500                       # Cumulative time (in ticks) in various power states
system.switch_cpus.itb.walker.pwrStateResidencyTicks::UNDEFINED 270777478894500                       # Cumulative time (in ticks) in various power states
system.tol2bus.pwrStateResidencyTicks::UNDEFINED 270777478894500                       # Cumulative time (in ticks) in various power states
system.tol2bus.trans_dist::ReadResp            168756                       # Transaction distribution
system.tol2bus.trans_dist::WritebackDirty        28464                       # Transaction distribution
system.tol2bus.trans_dist::WritebackClean           66                       # Transaction distribution
system.tol2bus.trans_dist::CleanEvict          151409                       # Transaction distribution
system.tol2bus.trans_dist::ReadExReq            12421                       # Transaction distribution
system.tol2bus.trans_dist::ReadExResp           12421                       # Transaction distribution
system.tol2bus.trans_dist::ReadCleanReq           280                       # Transaction distribution
system.tol2bus.trans_dist::ReadSharedReq       168476                       # Transaction distribution
system.tol2bus.pkt_count_system.cpu.icache.mem_side::system.l2.cpu_side          626                       # Packet count per connected master and slave (bytes)
system.tol2bus.pkt_count_system.cpu.dcache.mem_side::system.l2.cpu_side       541667                       # Packet count per connected master and slave (bytes)
system.tol2bus.pkt_count::total                542293                       # Packet count per connected master and slave (bytes)
system.tol2bus.pkt_size_system.cpu.icache.mem_side::system.l2.cpu_side        22144                       # Cumulative packet size per connected master and slave (bytes)
system.tol2bus.pkt_size_system.cpu.dcache.mem_side::system.l2.cpu_side     13399104                       # Cumulative packet size per connected master and slave (bytes)
system.tol2bus.pkt_size::total               13421248                       # Cumulative packet size per connected master and slave (bytes)
system.tol2bus.snoops                          178048                       # Total snoops (count)
system.tol2bus.snoopTraffic                    945728                       # Total snoop traffic (bytes)
system.tol2bus.snoop_fanout::samples           359225                       # Request fanout histogram
system.tol2bus.snoop_fanout::mean            0.437002                       # Request fanout histogram
system.tol2bus.snoop_fanout::stdev           0.496016                       # Request fanout histogram
system.tol2bus.snoop_fanout::underflows             0      0.00%      0.00% # Request fanout histogram
system.tol2bus.snoop_fanout::0                 202243     56.30%     56.30% # Request fanout histogram
system.tol2bus.snoop_fanout::1                 156982     43.70%    100.00% # Request fanout histogram
system.tol2bus.snoop_fanout::2                      0      0.00%    100.00% # Request fanout histogram
system.tol2bus.snoop_fanout::3                      0      0.00%    100.00% # Request fanout histogram
system.tol2bus.snoop_fanout::4                      0      0.00%    100.00% # Request fanout histogram
system.tol2bus.snoop_fanout::overflows              0      0.00%    100.00% # Request fanout histogram
system.tol2bus.snoop_fanout::min_value              0                       # Request fanout histogram
system.tol2bus.snoop_fanout::max_value              1                       # Request fanout histogram
system.tol2bus.snoop_fanout::total             359225                       # Request fanout histogram
system.tol2bus.reqLayer0.occupancy               1500                       # Layer occupancy (ticks)
system.tol2bus.reqLayer0.utilization              0.0                       # Layer utilization (%)
system.tol2bus.respLayer1.occupancy              3000                       # Layer occupancy (ticks)
system.tol2bus.respLayer1.utilization             0.0                       # Layer utilization (%)
system.tol2bus.respLayer0.occupancy              1500                       # Layer occupancy (ticks)
system.tol2bus.respLayer0.utilization             0.0                       # Layer utilization (%)
system.voltage_domain.voltage                       1                       # Voltage in Volts
system.clk_domain.clock                          1000                       # Clock period in ticks
system.l2.pwrStateResidencyTicks::UNDEFINED 270777478894500                       # Cumulative time (in ticks) in various power states
system.l2.demand_hits::.switch_cpus.inst            7                       # number of demand (read+write) hits
system.l2.demand_hits::.switch_cpus.data        16056                       # number of demand (read+write) hits
system.l2.demand_hits::total                    16063                       # number of demand (read+write) hits
system.l2.overall_hits::.switch_cpus.inst            7                       # number of overall hits
system.l2.overall_hits::.switch_cpus.data        16056                       # number of overall hits
system.l2.overall_hits::total                   16063                       # number of overall hits
system.l2.demand_misses::.cpu.inst                  1                       # number of demand (read+write) misses
system.l2.demand_misses::.cpu.data                  2                       # number of demand (read+write) misses
system.l2.demand_misses::.switch_cpus.inst          272                       # number of demand (read+write) misses
system.l2.demand_misses::.switch_cpus.data       164839                       # number of demand (read+write) misses
system.l2.demand_misses::total                 165114                       # number of demand (read+write) misses
system.l2.overall_misses::.cpu.inst                 1                       # number of overall misses
system.l2.overall_misses::.cpu.data                 2                       # number of overall misses
system.l2.overall_misses::.switch_cpus.inst          272                       # number of overall misses
system.l2.overall_misses::.switch_cpus.data       164839                       # number of overall misses
system.l2.overall_misses::total                165114                       # number of overall misses
system.l2.demand_miss_latency::.cpu.inst        84500                       # number of demand (read+write) miss cycles
system.l2.demand_miss_latency::.cpu.data       171500                       # number of demand (read+write) miss cycles
system.l2.demand_miss_latency::total           256000                       # number of demand (read+write) miss cycles
system.l2.overall_miss_latency::.cpu.inst        84500                       # number of overall miss cycles
system.l2.overall_miss_latency::.cpu.data       171500                       # number of overall miss cycles
system.l2.overall_miss_latency::total          256000                       # number of overall miss cycles
system.l2.demand_accesses::.cpu.inst                1                       # number of demand (read+write) accesses
system.l2.demand_accesses::.cpu.data                2                       # number of demand (read+write) accesses
system.l2.demand_accesses::.switch_cpus.inst          279                       # number of demand (read+write) accesses
system.l2.demand_accesses::.switch_cpus.data       180895                       # number of demand (read+write) accesses
system.l2.demand_accesses::total               181177                       # number of demand (read+write) accesses
system.l2.overall_accesses::.cpu.inst               1                       # number of overall (read+write) accesses
system.l2.overall_accesses::.cpu.data               2                       # number of overall (read+write) accesses
system.l2.overall_accesses::.switch_cpus.inst          279                       # number of overall (read+write) accesses
system.l2.overall_accesses::.switch_cpus.data       180895                       # number of overall (read+write) accesses
system.l2.overall_accesses::total              181177                       # number of overall (read+write) accesses
system.l2.demand_miss_rate::.cpu.inst               1                       # miss rate for demand accesses
system.l2.demand_miss_rate::.cpu.data               1                       # miss rate for demand accesses
system.l2.demand_miss_rate::.switch_cpus.inst     0.974910                       # miss rate for demand accesses
system.l2.demand_miss_rate::.switch_cpus.data     0.911241                       # miss rate for demand accesses
system.l2.demand_miss_rate::total            0.911341                       # miss rate for demand accesses
system.l2.overall_miss_rate::.cpu.inst              1                       # miss rate for overall accesses
system.l2.overall_miss_rate::.cpu.data              1                       # miss rate for overall accesses
system.l2.overall_miss_rate::.switch_cpus.inst     0.974910                       # miss rate for overall accesses
system.l2.overall_miss_rate::.switch_cpus.data     0.911241                       # miss rate for overall accesses
system.l2.overall_miss_rate::total           0.911341                       # miss rate for overall accesses
system.l2.demand_avg_miss_latency::.cpu.inst        84500                       # average overall miss latency
system.l2.demand_avg_miss_latency::.cpu.data        85750                       # average overall miss latency
system.l2.demand_avg_miss_latency::total     1.550444                       # average overall miss latency
system.l2.overall_avg_miss_latency::.cpu.inst        84500                       # average overall miss latency
system.l2.overall_avg_miss_latency::.cpu.data        85750                       # average overall miss latency
system.l2.overall_avg_miss_latency::total     1.550444                       # average overall miss latency
system.l2.blocked_cycles::no_mshrs                  0                       # number of cycles access was blocked
system.l2.blocked_cycles::no_targets                0                       # number of cycles access was blocked
system.l2.blocked::no_mshrs                         0                       # number of cycles access was blocked
system.l2.blocked::no_targets                       0                       # number of cycles access was blocked
system.l2.avg_blocked_cycles::no_mshrs            nan                       # average number of cycles each access was blocked
system.l2.avg_blocked_cycles::no_targets          nan                       # average number of cycles each access was blocked
system.l2.writebacks::.writebacks               14777                       # number of writebacks
system.l2.writebacks::total                     14777                       # number of writebacks
system.l2.demand_mshr_misses::.cpu.inst             1                       # number of demand (read+write) MSHR misses
system.l2.demand_mshr_misses::.cpu.data             2                       # number of demand (read+write) MSHR misses
system.l2.demand_mshr_misses::total                 3                       # number of demand (read+write) MSHR misses
system.l2.overall_mshr_misses::.cpu.inst            1                       # number of overall MSHR misses
system.l2.overall_mshr_misses::.cpu.data            2                       # number of overall MSHR misses
system.l2.overall_mshr_misses::total                3                       # number of overall MSHR misses
system.l2.demand_mshr_miss_latency::.cpu.inst        74500                       # number of demand (read+write) MSHR miss cycles
system.l2.demand_mshr_miss_latency::.cpu.data       151500                       # number of demand (read+write) MSHR miss cycles
system.l2.demand_mshr_miss_latency::total       226000                       # number of demand (read+write) MSHR miss cycles
system.l2.overall_mshr_miss_latency::.cpu.inst        74500                       # number of overall MSHR miss cycles
system.l2.overall_mshr_miss_latency::.cpu.data       151500                       # number of overall MSHR miss cycles
system.l2.overall_mshr_miss_latency::total       226000                       # number of overall MSHR miss cycles
system.l2.demand_mshr_miss_rate::.cpu.inst            1                       # mshr miss rate for demand accesses
system.l2.demand_mshr_miss_rate::.cpu.data            1                       # mshr miss rate for demand accesses
system.l2.demand_mshr_miss_rate::total       0.000017                       # mshr miss rate for demand accesses
system.l2.overall_mshr_miss_rate::.cpu.inst            1                       # mshr miss rate for overall accesses
system.l2.overall_mshr_miss_rate::.cpu.data            1                       # mshr miss rate for overall accesses
system.l2.overall_mshr_miss_rate::total      0.000017                       # mshr miss rate for overall accesses
system.l2.demand_avg_mshr_miss_latency::.cpu.inst        74500                       # average overall mshr miss latency
system.l2.demand_avg_mshr_miss_latency::.cpu.data        75750                       # average overall mshr miss latency
system.l2.demand_avg_mshr_miss_latency::total 75333.333333                       # average overall mshr miss latency
system.l2.overall_avg_mshr_miss_latency::.cpu.inst        74500                       # average overall mshr miss latency
system.l2.overall_avg_mshr_miss_latency::.cpu.data        75750                       # average overall mshr miss latency
system.l2.overall_avg_mshr_miss_latency::total 75333.333333                       # average overall mshr miss latency
system.l2.replacements                         178048                       # number of replacements
system.l2.WritebackDirty_hits::.writebacks        28464                       # number of WritebackDirty hits
system.l2.WritebackDirty_hits::total            28464                       # number of WritebackDirty hits
system.l2.WritebackDirty_accesses::.writebacks        28464                       # number of WritebackDirty accesses(hits+misses)
system.l2.WritebackDirty_accesses::total        28464                       # number of WritebackDirty accesses(hits+misses)
system.l2.WritebackClean_hits::.writebacks           66                       # number of WritebackClean hits
system.l2.WritebackClean_hits::total               66                       # number of WritebackClean hits
system.l2.WritebackClean_accesses::.writebacks           66                       # number of WritebackClean accesses(hits+misses)
system.l2.WritebackClean_accesses::total           66                       # number of WritebackClean accesses(hits+misses)
system.l2.ReadExReq_hits::.switch_cpus.data         1887                       # number of ReadExReq hits
system.l2.ReadExReq_hits::total                  1887                       # number of ReadExReq hits
system.l2.ReadExReq_misses::.switch_cpus.data        10534                       # number of ReadExReq misses
system.l2.ReadExReq_misses::total               10534                       # number of ReadExReq misses
system.l2.ReadExReq_accesses::.switch_cpus.data        12421                       # number of ReadExReq accesses(hits+misses)
system.l2.ReadExReq_accesses::total             12421                       # number of ReadExReq accesses(hits+misses)
system.l2.ReadExReq_miss_rate::.switch_cpus.data     0.848080                       # miss rate for ReadExReq accesses
system.l2.ReadExReq_miss_rate::total         0.848080                       # miss rate for ReadExReq accesses
system.l2.ReadCleanReq_hits::.switch_cpus.inst            7                       # number of ReadCleanReq hits
system.l2.ReadCleanReq_hits::total                  7                       # number of ReadCleanReq hits
system.l2.ReadCleanReq_misses::.cpu.inst            1                       # number of ReadCleanReq misses
system.l2.ReadCleanReq_misses::.switch_cpus.inst          272                       # number of ReadCleanReq misses
system.l2.ReadCleanReq_misses::total              273                       # number of ReadCleanReq misses
system.l2.ReadCleanReq_miss_latency::.cpu.inst        84500                       # number of ReadCleanReq miss cycles
system.l2.ReadCleanReq_miss_latency::total        84500                       # number of ReadCleanReq miss cycles
system.l2.ReadCleanReq_accesses::.cpu.inst            1                       # number of ReadCleanReq accesses(hits+misses)
system.l2.ReadCleanReq_accesses::.switch_cpus.inst          279                       # number of ReadCleanReq accesses(hits+misses)
system.l2.ReadCleanReq_accesses::total            280                       # number of ReadCleanReq accesses(hits+misses)
system.l2.ReadCleanReq_miss_rate::.cpu.inst            1                       # miss rate for ReadCleanReq accesses
system.l2.ReadCleanReq_miss_rate::.switch_cpus.inst     0.974910                       # miss rate for ReadCleanReq accesses
system.l2.ReadCleanReq_miss_rate::total      0.975000                       # miss rate for ReadCleanReq accesses
system.l2.ReadCleanReq_avg_miss_latency::.cpu.inst        84500                       # average ReadCleanReq miss latency
system.l2.ReadCleanReq_avg_miss_latency::total   309.523810                       # average ReadCleanReq miss latency
system.l2.ReadCleanReq_mshr_misses::.cpu.inst            1                       # number of ReadCleanReq MSHR misses
system.l2.ReadCleanReq_mshr_misses::total            1                       # number of ReadCleanReq MSHR misses
system.l2.ReadCleanReq_mshr_miss_latency::.cpu.inst        74500                       # number of ReadCleanReq MSHR miss cycles
system.l2.ReadCleanReq_mshr_miss_latency::total        74500                       # number of ReadCleanReq MSHR miss cycles
system.l2.ReadCleanReq_mshr_miss_rate::.cpu.inst            1                       # mshr miss rate for ReadCleanReq accesses
system.l2.ReadCleanReq_mshr_miss_rate::total     0.003571                       # mshr miss rate for ReadCleanReq accesses
system.l2.ReadCleanReq_avg_mshr_miss_latency::.cpu.inst        74500                       # average ReadCleanReq mshr miss latency
system.l2.ReadCleanReq_avg_mshr_miss_latency::total        74500                       # average ReadCleanReq mshr miss latency
system.l2.ReadSharedReq_hits::.switch_cpus.data        14169                       # number of ReadSharedReq hits
system.l2.ReadSharedReq_hits::total             14169                       # number of ReadSharedReq hits
system.l2.ReadSharedReq_misses::.cpu.data            2                       # number of ReadSharedReq misses
system.l2.ReadSharedReq_misses::.switch_cpus.data       154305                       # number of ReadSharedReq misses
system.l2.ReadSharedReq_misses::total          154307                       # number of ReadSharedReq misses
system.l2.ReadSharedReq_miss_latency::.cpu.data       171500                       # number of ReadSharedReq miss cycles
system.l2.ReadSharedReq_miss_latency::total       171500                       # number of ReadSharedReq miss cycles
system.l2.ReadSharedReq_accesses::.cpu.data            2                       # number of ReadSharedReq accesses(hits+misses)
system.l2.ReadSharedReq_accesses::.switch_cpus.data       168474                       # number of ReadSharedReq accesses(hits+misses)
system.l2.ReadSharedReq_accesses::total        168476                       # number of ReadSharedReq accesses(hits+misses)
system.l2.ReadSharedReq_miss_rate::.cpu.data            1                       # miss rate for ReadSharedReq accesses
system.l2.ReadSharedReq_miss_rate::.switch_cpus.data     0.915898                       # miss rate for ReadSharedReq accesses
system.l2.ReadSharedReq_miss_rate::total     0.915899                       # miss rate for ReadSharedReq accesses
system.l2.ReadSharedReq_avg_miss_latency::.cpu.data        85750                       # average ReadSharedReq miss latency
system.l2.ReadSharedReq_avg_miss_latency::total     1.111421                       # average ReadSharedReq miss latency
system.l2.ReadSharedReq_mshr_misses::.cpu.data            2                       # number of ReadSharedReq MSHR misses
system.l2.ReadSharedReq_mshr_misses::total            2                       # number of ReadSharedReq MSHR misses
system.l2.ReadSharedReq_mshr_miss_latency::.cpu.data       151500                       # number of ReadSharedReq MSHR miss cycles
system.l2.ReadSharedReq_mshr_miss_latency::total       151500                       # number of ReadSharedReq MSHR miss cycles
system.l2.ReadSharedReq_mshr_miss_rate::.cpu.data            1                       # mshr miss rate for ReadSharedReq accesses
system.l2.ReadSharedReq_mshr_miss_rate::total     0.000012                       # mshr miss rate for ReadSharedReq accesses
system.l2.ReadSharedReq_avg_mshr_miss_latency::.cpu.data        75750                       # average ReadSharedReq mshr miss latency
system.l2.ReadSharedReq_avg_mshr_miss_latency::total        75750                       # average ReadSharedReq mshr miss latency
system.l2.tags.pwrStateResidencyTicks::UNDEFINED 270777478894500                       # Cumulative time (in ticks) in various power states
system.l2.tags.tagsinuse                  2036.614836                       # Cycle average of tags in use
system.l2.tags.total_refs                      193607                       # Total number of references to valid blocks.
system.l2.tags.sampled_refs                    178048                       # Sample count of references to valid blocks.
[...]
system.mem_ctrls.rank0.actBackEnergy                0                       # Energy for active background per rank (pJ)
system.mem_ctrls.rank0.preBackEnergy      11767906080                       # Energy for precharge background per rank (pJ)
system.mem_ctrls.rank0.actPowerDownEnergy            0                       # Energy for active power-down per rank (pJ)
system.mem_ctrls.rank0.prePowerDownEnergy            0                       # Energy for precharge power-down per rank (pJ)
system.mem_ctrls.rank0.selfRefreshEnergy            0                       # Energy for self refresh per rank (pJ)
system.mem_ctrls.rank0.totalEnergy        11767906080                       # Total energy per rank (pJ)
system.mem_ctrls.rank0.averagePower        384.000003                       # Core power per rank (mW)
system.mem_ctrls.rank0.totalIdleTime                0                       # Total Idle time Per DRAM Rank
system.mem_ctrls.rank0.memoryStateTime::IDLE  30645588500                       # Time in different power states
system.mem_ctrls.rank0.memoryStateTime::REF            0                       # Time in different power states
system.mem_ctrls.rank0.memoryStateTime::SREF            0                       # Time in different power states
system.mem_ctrls.rank0.memoryStateTime::PRE_PDN            0                       # Time in different power states
system.mem_ctrls.rank0.memoryStateTime::ACT            0                       # Time in different power states
system.mem_ctrls.rank0.memoryStateTime::ACT_PDN            0                       # Time in different power states
system.cpu_clk_domain.clock                       500                       # Clock period in ticks
system.cpu.pwrStateResidencyTicks::OFF    30645588500                       # Cumulative time (in ticks) in various power states
system.cpu.icache.pwrStateResidencyTicks::UNDEFINED  30645588500                       # Cumulative time (in ticks) in various power states
system.cpu.icache.demand_hits::.switch_cpus.inst     40988878                       # number of demand (read+write) hits
system.cpu.icache.demand_hits::total         40988878                       # number of demand (read+write) hits
system.cpu.icache.overall_hits::.switch_cpus.inst     40988878                       # number of overall hits
system.cpu.icache.overall_hits::total        40988878                       # number of overall hits
system.cpu.icache.demand_misses::.switch_cpus.inst         1894                       # number of demand (read+write) misses
system.cpu.icache.demand_misses::total           1894                       # number of demand (read+write) misses
system.cpu.icache.overall_misses::.switch_cpus.inst         1894                       # number of overall misses
system.cpu.icache.overall_misses::total          1894                       # number of overall misses
system.cpu.icache.demand_accesses::.switch_cpus.inst     40990772                       # number of demand (read+write) accesses
system.cpu.icache.demand_accesses::total     40990772                       # number of demand (read+write) accesses
system.cpu.icache.overall_accesses::.switch_cpus.inst     40990772                       # number of overall (read+write) accesses
system.cpu.icache.overall_accesses::total     40990772                       # number of overall (read+write) accesses
system.cpu.icache.demand_miss_rate::.switch_cpus.inst     0.000046                       # miss rate for demand accesses
system.cpu.icache.demand_miss_rate::total     0.000046                       # miss rate for demand accesses
system.cpu.icache.overall_miss_rate::.switch_cpus.inst     0.000046                       # miss rate for overall accesses
system.cpu.icache.overall_miss_rate::total     0.000046                       # miss rate for overall accesses
system.cpu.icache.blocked_cycles::no_mshrs            0                       # number of cycles access was blocked
system.cpu.icache.blocked_cycles::no_targets            0                       # number of cycles access was blocked
system.cpu.icache.blocked::no_mshrs                 0                       # number of cycles access was blocked
system.cpu.icache.blocked::no_targets               0                       # number of cycles access was blocked
system.cpu.icache.avg_blocked_cycles::no_mshrs          nan                       # average number of cycles each access was blocked
system.cpu.icache.avg_blocked_cycles::no_targets          nan                       # average number of cycles each access was blocked
system.cpu.icache.writebacks::.writebacks         1689                       # number of writebacks
system.cpu.icache.writebacks::total              1689                       # number of writebacks
system.cpu.icache.replacements                   1689                       # number of replacements
system.cpu.icache.ReadReq_hits::.switch_cpus.inst     40988878                       # number of ReadReq hits
system.cpu.icache.ReadReq_hits::total        40988878                       # number of ReadReq hits
system.cpu.icache.ReadReq_misses::.switch_cpus.inst         1894                       # number of ReadReq misses
system.cpu.icache.ReadReq_misses::total          1894                       # number of ReadReq misses
system.cpu.icache.ReadReq_accesses::.switch_cpus.inst     40990772                       # number of ReadReq accesses(hits+misses)
system.cpu.icache.ReadReq_accesses::total     40990772                       # number of ReadReq accesses(hits+misses)
system.cpu.icache.ReadReq_miss_rate::.switch_cpus.inst     0.000046                       # miss rate for ReadReq accesses
system.cpu.icache.ReadReq_miss_rate::total     0.000046                       # miss rate for ReadReq accesses
system.cpu.icache.tags.pwrStateResidencyTicks::UNDEFINED  30645588500                       # Cumulative time (in ticks) in various power states
system.cpu.icache.tags.tagsinuse           354.078727                       # Cycle average of tags in use
system.cpu.icache.tags.total_refs            54149821                       # Total number of references to valid blocks.
system.cpu.icache.tags.sampled_refs              2108                       # Sample count of references to valid blocks.
system.cpu.icache.tags.avg_refs          25687.770873                       # Average number of references to valid blocks.
system.cpu.icache.tags.warmup_cycle                 0                       # Cycle when the warmup percentage was hit.
system.cpu.icache.tags.occ_blocks::.cpu.inst            1                       # Average occupied blocks per requestor
system.cpu.icache.tags.occ_blocks::.switch_cpus.inst   353.078727                       # Average occupied blocks per requestor
system.cpu.icache.tags.occ_percent::.cpu.inst     0.001953                       # Average percentage of cache occupancy
system.cpu.icache.tags.occ_percent::.switch_cpus.inst     0.689607                       # Average percentage of cache occupancy
system.cpu.icache.tags.occ_percent::total     0.691560                       # Average percentage of cache occupancy
system.cpu.icache.tags.occ_task_id_blocks::1024          419                       # Occupied blocks per task id
system.cpu.icache.tags.age_task_id_blocks_1024::3           50                       # Occupied blocks per task id
system.cpu.icache.tags.age_task_id_blocks_1024::4          369                       # Occupied blocks per task id
system.cpu.icache.tags.occ_task_id_percent::1024     0.818359                       # Percentage of cache occupancy per task id
system.cpu.icache.tags.tag_accesses          81983438                       # Number of tag accesses
system.cpu.icache.tags.data_accesses         81983438                       # Number of data accesses
system.cpu.dtb.walker.pwrStateResidencyTicks::UNDEFINED  30645588500                       # Cumulative time (in ticks) in various power states
system.cpu.interrupts.clk_domain.clock           8000                       # Clock period in ticks
system.cpu.itb_walker_cache.pwrStateResidencyTicks::UNDEFINED  30645588500                       # Cumulative time (in ticks) in various power states
system.cpu.itb_walker_cache.blocked_cycles::no_mshrs            0                       # number of cycles access was blocked
system.cpu.itb_walker_cache.blocked_cycles::no_targets            0                       # number of cycles access was blocked
system.cpu.itb_walker_cache.blocked::no_mshrs            0                       # number of cycles access was blocked
system.cpu.itb_walker_cache.blocked::no_targets            0                       # number of cycles access was blocked
system.cpu.itb_walker_cache.avg_blocked_cycles::no_mshrs          nan                       # average number of cycles each access was blocked
system.cpu.itb_walker_cache.avg_blocked_cycles::no_targets          nan                       # average number of cycles each access was blocked
system.cpu.itb_walker_cache.replacements            0                       # number of replacements
system.cpu.itb_walker_cache.tags.pwrStateResidencyTicks::UNDEFINED  30645588500                       # Cumulative time (in ticks) in various power states
system.cpu.itb_walker_cache.tags.tagsinuse            0                       # Cycle average of tags in use
system.cpu.itb_walker_cache.tags.total_refs            0                       # Total number of references to valid blocks.
system.cpu.itb_walker_cache.tags.sampled_refs            0                       # Sample count of references to valid blocks.
system.cpu.itb_walker_cache.tags.avg_refs          nan                       # Average number of references to valid blocks.
system.cpu.itb_walker_cache.tags.warmup_cycle            0                       # Cycle when the warmup percentage was hit.
system.cpu.itb_walker_cache.tags.tag_accesses            0                       # Number of tag accesses
system.cpu.itb_walker_cache.tags.data_accesses            0                       # Number of data accesses
system.cpu.itb.walker.pwrStateResidencyTicks::UNDEFINED  30645588500                       # Cumulative time (in ticks) in various power states
system.cpu.dtb_walker_cache.pwrStateResidencyTicks::UNDEFINED  30645588500                       # Cumulative time (in ticks) in various power states
system.cpu.dtb_walker_cache.blocked_cycles::no_mshrs            0                       # number of cycles access was blocked
system.cpu.dtb_walker_cache.blocked_cycles::no_targets            0                       # number of cycles access was blocked
system.cpu.dtb_walker_cache.blocked::no_mshrs            0                       # number of cycles access was blocked
system.cpu.dtb_walker_cache.blocked::no_targets            0                       # number of cycles access was blocked
system.cpu.dtb_walker_cache.avg_blocked_cycles::no_mshrs          nan                       # average number of cycles each access was blocked
system.cpu.dtb_walker_cache.avg_blocked_cycles::no_targets          nan                       # average number of cycles each access was blocked
system.cpu.dtb_walker_cache.replacements            0                       # number of replacements
system.cpu.dtb_walker_cache.tags.pwrStateResidencyTicks::UNDEFINED  30645588500                       # Cumulative time (in ticks) in various power states
system.cpu.dtb_walker_cache.tags.tagsinuse            0                       # Cycle average of tags in use
system.cpu.dtb_walker_cache.tags.total_refs            0                       # Total number of references to valid blocks.
system.cpu.dtb_walker_cache.tags.sampled_refs            0                       # Sample count of references to valid blocks.
system.cpu.dtb_walker_cache.tags.avg_refs          nan                       # Average number of references to valid blocks.
system.cpu.dtb_walker_cache.tags.warmup_cycle            0                       # Cycle when the warmup percentage was hit.
system.cpu.dtb_walker_cache.tags.tag_accesses            0                       # Number of tag accesses
system.cpu.dtb_walker_cache.tags.data_accesses            0                       # Number of data accesses
system.cpu.dcache.pwrStateResidencyTicks::UNDEFINED  30645588500                       # Cumulative time (in ticks) in various power states
system.cpu.dcache.demand_hits::.switch_cpus.data      8730799                       # number of demand (read+write) hits
system.cpu.dcache.demand_hits::total          8730799                       # number of demand (read+write) hits
system.cpu.dcache.overall_hits::.switch_cpus.data      8732050                       # number of overall hits
system.cpu.dcache.overall_hits::total         8732050                       # number of overall hits
system.cpu.dcache.demand_misses::.switch_cpus.data       556627                       # number of demand (read+write) misses
system.cpu.dcache.demand_misses::total         556627                       # number of demand (read+write) misses
system.cpu.dcache.overall_misses::.switch_cpus.data       556766                       # number of overall misses
system.cpu.dcache.overall_misses::total        556766                       # number of overall misses
system.cpu.dcache.demand_accesses::.switch_cpus.data      9287426                       # number of demand (read+write) accesses
system.cpu.dcache.demand_accesses::total      9287426                       # number of demand (read+write) accesses
system.cpu.dcache.overall_accesses::.switch_cpus.data      9288816                       # number of overall (read+write) accesses
system.cpu.dcache.overall_accesses::total      9288816                       # number of overall (read+write) accesses
system.cpu.dcache.demand_miss_rate::.switch_cpus.data     0.059933                       # miss rate for demand accesses
system.cpu.dcache.demand_miss_rate::total     0.059933                       # miss rate for demand accesses
system.cpu.dcache.overall_miss_rate::.switch_cpus.data     0.059939                       # miss rate for overall accesses
system.cpu.dcache.overall_miss_rate::total     0.059939                       # miss rate for overall accesses
system.cpu.dcache.blocked_cycles::no_mshrs            0                       # number of cycles access was blocked
system.cpu.dcache.blocked_cycles::no_targets            0                       # number of cycles access was blocked
system.cpu.dcache.blocked::no_mshrs                 0                       # number of cycles access was blocked
system.cpu.dcache.blocked::no_targets               0                       # number of cycles access was blocked
system.cpu.dcache.avg_blocked_cycles::no_mshrs          nan                       # average number of cycles each access was blocked
system.cpu.dcache.avg_blocked_cycles::no_targets          nan                       # average number of cycles each access was blocked
system.cpu.dcache.writebacks::.writebacks        98068                       # number of writebacks
system.cpu.dcache.writebacks::total             98068                       # number of writebacks
system.cpu.dcache.replacements                 556766                       # number of replacements
system.cpu.dcache.ReadReq_hits::.switch_cpus.data      7776836                       # number of ReadReq hits
system.cpu.dcache.ReadReq_hits::total         7776836                       # number of ReadReq hits
system.cpu.dcache.ReadReq_misses::.switch_cpus.data       522300                       # number of ReadReq misses
system.cpu.dcache.ReadReq_misses::total        522300                       # number of ReadReq misses
system.cpu.dcache.ReadReq_accesses::.switch_cpus.data      8299136                       # number of ReadReq accesses(hits+misses)
system.cpu.dcache.ReadReq_accesses::total      8299136                       # number of ReadReq accesses(hits+misses)
system.cpu.dcache.ReadReq_miss_rate::.switch_cpus.data     0.062934                       # miss rate for ReadReq accesses
system.cpu.dcache.ReadReq_miss_rate::total     0.062934                       # miss rate for ReadReq accesses
system.cpu.dcache.WriteReq_hits::.switch_cpus.data       953963                       # number of WriteReq hits
system.cpu.dcache.WriteReq_hits::total         953963                       # number of WriteReq hits
system.cpu.dcache.WriteReq_misses::.switch_cpus.data        34327                       # number of WriteReq misses
system.cpu.dcache.WriteReq_misses::total        34327                       # number of WriteReq misses
system.cpu.dcache.WriteReq_accesses::.switch_cpus.data       988290                       # number of WriteReq accesses(hits+misses)
system.cpu.dcache.WriteReq_accesses::total       988290                       # number of WriteReq accesses(hits+misses)
system.cpu.dcache.WriteReq_miss_rate::.switch_cpus.data     0.034734                       # miss rate for WriteReq accesses
system.cpu.dcache.WriteReq_miss_rate::total     0.034734                       # miss rate for WriteReq accesses
system.cpu.dcache.SoftPFReq_hits::.switch_cpus.data         1251                       # number of SoftPFReq hits
system.cpu.dcache.SoftPFReq_hits::total          1251                       # number of SoftPFReq hits
system.cpu.dcache.SoftPFReq_misses::.switch_cpus.data          139                       # number of SoftPFReq misses
system.cpu.dcache.SoftPFReq_misses::total          139                       # number of SoftPFReq misses
system.cpu.dcache.SoftPFReq_accesses::.switch_cpus.data         1390                       # number of SoftPFReq accesses(hits+misses)
system.cpu.dcache.SoftPFReq_accesses::total         1390                       # number of SoftPFReq accesses(hits+misses)
system.cpu.dcache.SoftPFReq_miss_rate::.switch_cpus.data     0.100000                       # miss rate for SoftPFReq accesses
system.cpu.dcache.SoftPFReq_miss_rate::total     0.100000                       # miss rate for SoftPFReq accesses
system.cpu.dcache.tags.pwrStateResidencyTicks::UNDEFINED  30645588500                       # Cumulative time (in ticks) in various power states
system.cpu.dcache.tags.tagsinuse                 1024                       # Cycle average of tags in use
system.cpu.dcache.tags.total_refs             9367672                       # Total number of references to valid blocks.
system.cpu.dcache.tags.sampled_refs            557790                       # Sample count of references to valid blocks.
system.cpu.dcache.tags.avg_refs             16.794263                       # Average number of references to valid blocks.
system.cpu.dcache.tags.warmup_cycle                 0                       # Cycle when the warmup percentage was hit.
system.cpu.dcache.tags.occ_blocks::.switch_cpus.data         1024                       # Average occupied blocks per requestor
system.cpu.dcache.tags.occ_percent::.switch_cpus.data            1                       # Average percentage of cache occupancy
system.cpu.dcache.tags.occ_percent::total            1                       # Average percentage of cache occupancy
system.cpu.dcache.tags.occ_task_id_blocks::1024         1024                       # Occupied blocks per task id
system.cpu.dcache.tags.age_task_id_blocks_1024::0          145                       # Occupied blocks per task id
system.cpu.dcache.tags.age_task_id_blocks_1024::1          876                       # Occupied blocks per task id
system.cpu.dcache.tags.age_task_id_blocks_1024::3            3                       # Occupied blocks per task id
system.cpu.dcache.tags.occ_task_id_percent::1024            1                       # Percentage of cache occupancy per task id
system.cpu.dcache.tags.tag_accesses          19134398                       # Number of tag accesses
system.cpu.dcache.tags.data_accesses         19134398                       # Number of data accesses

---------- End Simulation Statistics   ----------
