
---------- Begin Simulation Statistics ----------
final_tick                               120508019796000                       # Number of ticks from beginning of simulation (restored from checkpoints and never reset)
host_inst_rate                                  78419                       # Simulator instruction rate (inst/s)
host_mem_usage                                 792108                       # Number of bytes of host memory used
host_op_rate                                   125963                       # Simulator op (including micro ops) rate (op/s)
host_seconds                                   127.52                       # Real time elapsed on the host
host_tick_rate                               20229932                       # Simulator tick rate (ticks/s)
sim_freq                                 1000000000000                       # Frequency of simulated ticks
sim_insts                                    10000012                       # Number of instructions simulated
sim_ops                                      16062752                       # Number of ops (including micro ops) simulated
sim_seconds                                  0.002580                       # Number of seconds simulated
sim_ticks                                  2579719750                       # Number of ticks simulated
system.cpu.committedInsts                          11                       # Number of instructions committed
system.cpu.committedOps                            16                       # Number of ops (including micro ops) committed
system.cpu.dtb.rdAccesses                           6                       # TLB accesses on read requests
system.cpu.dtb.rdMisses                             0                       # TLB misses on read requests
system.cpu.dtb.wrAccesses                           2                       # TLB accesses on write requests
system.cpu.dtb.wrMisses                             0                       # TLB misses on write requests
system.cpu.idle_fraction                            0                       # Percentage of idle cycles
system.cpu.itb.rdAccesses                           0                       # TLB accesses on read requests
system.cpu.itb.rdMisses                             0                       # TLB misses on read requests
system.cpu.itb.wrAccesses                          15                       # TLB accesses on write requests
system.cpu.itb.wrMisses                             0                       # TLB misses on write requests
system.cpu.not_idle_fraction                        1                       # Percentage of non-idle cycles
system.cpu.numCycles                               20                       # number of cpu cycles simulated
system.cpu.numWorkItemsCompleted                    0                       # number of work items this cpu completed
system.cpu.numWorkItemsStarted                      0                       # number of work items this cpu started
system.cpu.num_busy_cycles                         20                       # Number of busy cycles
system.cpu.num_cc_register_reads                   10                       # number of times the CC registers were read
system.cpu.num_cc_register_writes                  10                       # number of times the CC registers were written
system.cpu.num_conditional_control_insts            0                       # number of instructions that are conditional controls
system.cpu.num_fp_alu_accesses                      0                       # Number of float alu accesses
system.cpu.num_fp_insts                             0                       # number of float instructions
system.cpu.num_fp_register_reads                    0                       # number of times the floating registers were read
system.cpu.num_fp_register_writes                   0                       # number of times the floating registers were written
system.cpu.num_func_calls                           0                       # number of times a function call or return occured
system.cpu.num_idle_cycles                          0                       # Number of idle cycles
system.cpu.num_int_alu_accesses                    16                       # Number of integer alu accesses
system.cpu.num_int_insts                           16                       # number of integer instructions
system.cpu.num_int_register_reads                  42                       # number of times the integer registers were read
system.cpu.num_int_register_writes                 14                       # number of times the integer registers were written
system.cpu.num_load_insts                           6                       # Number of load instructions
system.cpu.num_mem_refs                             8                       # number of memory refs
system.cpu.num_store_insts                          2                       # Number of store instructions
system.cpu.num_vec_alu_accesses                     0                       # Number of vector alu accesses
system.cpu.num_vec_insts                            0                       # number of vector instructions
system.cpu.num_vec_register_reads                   0                       # number of times the vector registers were read
system.cpu.num_vec_register_writes                  0                       # number of times the vector registers were written
system.cpu.op_class::No_OpClass                     0      0.00%      0.00% # Class of executed instruction
system.cpu.op_class::IntAlu                         8     50.00%     50.00% # Class of executed instruction
system.cpu.op_class::IntMult                        0      0.00%     50.00% # Class of executed instruction
system.cpu.op_class::IntDiv                         0      0.00%     50.00% # Class of executed instruction
system.cpu.op_class::FloatAdd                       0      0.00%     50.00% # Class of executed instruction
system.cpu.op_class::FloatCmp                       0      0.00%     50.00% # Class of executed instruction
system.cpu.op_class::FloatCvt                       0      0.00%     50.00% # Class of executed instruction
system.cpu.op_class::FloatMult                      0      0.00%     50.00% # Class of executed instruction
system.cpu.op_class::FloatMultAcc                   0      0.00%     50.00% # Class of executed instruction
system.cpu.op_class::FloatDiv                       0      0.00%     50.00% # Class of executed instruction
system.cpu.op_class::FloatMisc                      0      0.00%     50.00% # Class of executed instruction
system.cpu.op_class::FloatSqrt                      0      0.00%     50.00% # Class of executed instruction
system.cpu.op_class::SimdAdd                        0      0.00%     50.00% # Class of executed instruction
system.cpu.op_class::SimdAddAcc                     0      0.00%     50.00% # Class of executed instruction
system.cpu.op_class::SimdAlu                        0      0.00%     50.00% # Class of executed instruction
system.cpu.op_class::SimdCmp                        0      0.00%     50.00% # Class of executed instruction
system.cpu.op_class::SimdCvt                        0      0.00%     50.00% # Class of executed instruction
system.cpu.op_class::SimdMisc                       0      0.00%     50.00% # Class of executed instruction
system.cpu.op_class::SimdMult                       0      0.00%     50.00% # Class of executed instruction
system.cpu.op_class::SimdMultAcc                    0      0.00%     50.00% # Class of executed instruction
system.cpu.op_class::SimdShift                      0      0.00%     50.00% # Class of executed instruction
system.cpu.op_class::SimdShiftAcc                   0      0.00%     50.00% # Class of executed instruction
system.cpu.op_class::SimdDiv                        0      0.00%     50.00% # Class of executed instruction
system.cpu.op_class::SimdSqrt                       0      0.00%     50.00% # Class of executed instruction
system.cpu.op_class::SimdFloatAdd                   0      0.00%     50.00% # Class of executed instruction
system.cpu.op_class::SimdFloatAlu                   0      0.00%     50.00% # Class of executed instruction
system.cpu.op_class::SimdFloatCmp                   0      0.00%     50.00% # Class of executed instruction
system.cpu.op_class::SimdFloatCvt                   0      0.00%     50.00% # Class of executed instruction
system.cpu.op_class::SimdFloatDiv                   0      0.00%     50.00% # Class of executed instruction
system.cpu.op_class::SimdFloatMisc                  0      0.00%     50.00% # Class of executed instruction
system.cpu.op_class::SimdFloatMult                  0      0.00%     50.00% # Class of executed instruction
system.cpu.op_class::SimdFloatMultAcc               0      0.00%     50.00% # Class of executed instruction
system.cpu.op_class::SimdFloatSqrt                  0      0.00%     50.00% # Class of executed instruction
system.cpu.op_class::SimdReduceAdd                  0      0.00%     50.00% # Class of executed instruction
system.cpu.op_class::SimdReduceAlu                  0      0.00%     50.00% # Class of executed instruction
system.cpu.op_class::SimdReduceCmp                  0      0.00%     50.00% # Class of executed instruction
system.cpu.op_class::SimdFloatReduceAdd             0      0.00%     50.00% # Class of executed instruction
system.cpu.op_class::SimdFloatReduceCmp             0      0.00%     50.00% # Class of executed instruction
system.cpu.op_class::SimdAes                        0      0.00%     50.00% # Class of executed instruction
system.cpu.op_class::SimdAesMix                     0      0.00%     50.00% # Class of executed instruction
system.cpu.op_class::SimdSha1Hash                   0      0.00%     50.00% # Class of executed instruction
system.cpu.op_class::SimdSha1Hash2                  0      0.00%     50.00% # Class of executed instruction
system.cpu.op_class::SimdSha256Hash                 0      0.00%     50.00% # Class of executed instruction
system.cpu.op_class::SimdSha256Hash2                0      0.00%     50.00% # Class of executed instruction
system.cpu.op_class::SimdShaSigma2                  0      0.00%     50.00% # Class of executed instruction
system.cpu.op_class::SimdShaSigma3                  0      0.00%     50.00% # Class of executed instruction
system.cpu.op_class::SimdPredAlu                    0      0.00%     50.00% # Class of executed instruction
system.cpu.op_class::MemRead                        6     37.50%     87.50% # Class of executed instruction
system.cpu.op_class::MemWrite                       2     12.50%    100.00% # Class of executed instruction
system.cpu.op_class::FloatMemRead                   0      0.00%    100.00% # Class of executed instruction
system.cpu.op_class::FloatMemWrite                  0      0.00%    100.00% # Class of executed instruction
system.cpu.op_class::IprAccess                      0      0.00%    100.00% # Class of executed instruction
system.cpu.op_class::InstPrefetch                   0      0.00%    100.00% # Class of executed instruction
system.cpu.op_class::total                         16                       # Class of executed instruction
system.cpu.workload.numSyscalls                     0                       # Number of system calls
system.l2.prefetcher.num_hwpf_issued              546                       # number of hwpf issued
system.l2.prefetcher.pfBufferHit                    0                       # number of redundant prefetches already in prefetch queue
system.l2.prefetcher.pfIdentified                 546                       # number of prefetch candidates identified
system.l2.prefetcher.pfInCache                      0                       # number of redundant prefetches already in cache/mshr dropped
system.l2.prefetcher.pfRemovedFull                  0                       # number of prefetches dropped due to prefetch queue size
system.l2.prefetcher.pfSpanPage                    54                       # number of prefetches that crossed the page
system.membus.snoop_filter.hit_multi_requests            0                       # Number of requests hitting in the snoop filter with multiple (>1) holders of the requested data.
system.membus.snoop_filter.hit_multi_snoops            0                       # Number of snoops hitting in the snoop filter with multiple (>1) holders of the requested data.
system.membus.snoop_filter.hit_single_requests           22                       # Number of requests hitting in the snoop filter with a single holder of the requested data.
system.membus.snoop_filter.hit_single_snoops            0                       # Number of snoops hitting in the snoop filter with a single holder of the requested data.
system.membus.snoop_filter.tot_requests          2566                       # Total number of requests made to the snoop filter.
system.membus.snoop_filter.tot_snoops               0                       # Total number of snoops made to the snoop filter.
system.switch_cpus.branchPred.BTBCorrect            0                       # Number of correct BTB predictions (this stat may not work properly.
system.switch_cpus.branchPred.BTBHitPct      0.000000                       # BTB Hit Percentage
system.switch_cpus.branchPred.BTBHits               0                       # Number of BTB hits
system.switch_cpus.branchPred.BTBLookups       651005                       # Number of BTB lookups
system.switch_cpus.branchPred.RASInCorrect            1                       # Number of incorrect RAS predictions.
system.switch_cpus.branchPred.condIncorrect        20293                       # Number of conditional branches incorrect
system.switch_cpus.branchPred.condPredicted       870286                       # Number of conditional branches predicted
system.switch_cpus.branchPred.indirectHits       504502                       # Number of indirect target hits.
system.switch_cpus.branchPred.indirectLookups       651005                       # Number of indirect predictor lookups.
system.switch_cpus.branchPred.indirectMisses       146503                       # Number of indirect misses.
system.switch_cpus.branchPred.lookups          953729                       # Number of BP lookups
system.switch_cpus.branchPred.usedRAS           40965                       # Number of times the RAS was used to get a target.
system.switch_cpus.branchPredindirectMispredicted         2527                       # Number of mispredicted indirect branches.
system.switch_cpus.cc_regfile_reads          14097207                       # number of cc regfile reads
system.switch_cpus.cc_regfile_writes          7123153                       # number of cc regfile writes
system.switch_cpus.commit.amos                      0                       # Number of atomic instructions committed
system.switch_cpus.commit.branchMispredicts        20316                       # The number of times a branch was mispredicted
system.switch_cpus.commit.branches             724275                       # Number of branches committed
system.switch_cpus.commit.bw_lim_events       1273124                       # number cycles where commit BW limit reached
system.switch_cpus.commit.commitSquashedInsts      1249875                       # The number of squashed insts skipped by commit
system.switch_cpus.commit.committedInsts     10000001                       # Number of instructions committed
system.switch_cpus.commit.committedOps       16062736                       # Number of ops (including micro ops) committed
system.switch_cpus.commit.committed_per_cycle::samples      4982443                       # Number of insts commited each cycle
system.switch_cpus.commit.committed_per_cycle::mean     3.223867                       # Number of insts commited each cycle
system.switch_cpus.commit.committed_per_cycle::stdev     3.126954                       # Number of insts commited each cycle
system.switch_cpus.commit.committed_per_cycle::underflows            0      0.00%      0.00% # Number of insts commited each cycle
system.switch_cpus.commit.committed_per_cycle::0       715137     14.35%     14.35% # Number of insts commited each cycle
system.switch_cpus.commit.committed_per_cycle::1      1878176     37.70%     52.05% # Number of insts commited each cycle
system.switch_cpus.commit.committed_per_cycle::2       419590      8.42%     60.47% # Number of insts commited each cycle
system.switch_cpus.commit.committed_per_cycle::3       200327      4.02%     64.49% # Number of insts commited each cycle
system.switch_cpus.commit.committed_per_cycle::4       151239      3.04%     67.53% # Number of insts commited each cycle
system.switch_cpus.commit.committed_per_cycle::5       159136      3.19%     70.72% # Number of insts commited each cycle
system.switch_cpus.commit.committed_per_cycle::6       141227      2.83%     73.55% # Number of insts commited each cycle
system.switch_cpus.commit.committed_per_cycle::7        44487      0.89%     74.45% # Number of insts commited each cycle
system.switch_cpus.commit.committed_per_cycle::8      1273124     25.55%    100.00% # Number of insts commited each cycle
system.switch_cpus.commit.committed_per_cycle::overflows            0      0.00%    100.00% # Number of insts commited each cycle
system.switch_cpus.commit.committed_per_cycle::min_value            0                       # Number of insts commited each cycle
system.switch_cpus.commit.committed_per_cycle::max_value            8                       # Number of insts commited each cycle
system.switch_cpus.commit.committed_per_cycle::total      4982443                       # Number of insts commited each cycle
system.switch_cpus.commit.fp_insts            1436910                       # Number of committed floating point instructions.
system.switch_cpus.commit.function_calls        32801                       # Number of function calls committed.
system.switch_cpus.commit.int_insts          14834461                       # Number of committed integer instructions.
system.switch_cpus.commit.loads               3595534                       # Number of loads committed
system.switch_cpus.commit.membars                   0                       # Number of memory barriers committed
system.switch_cpus.commit.op_class_0::No_OpClass        95086      0.59%      0.59% # Class of committed instruction
system.switch_cpus.commit.op_class_0::IntAlu      9860253     61.39%     61.98% # Class of committed instruction
system.switch_cpus.commit.op_class_0::IntMult        86584      0.54%     62.52% # Class of committed instruction
system.switch_cpus.commit.op_class_0::IntDiv            0      0.00%     62.52% # Class of committed instruction
system.switch_cpus.commit.op_class_0::FloatAdd        32605      0.20%     62.72% # Class of committed instruction
system.switch_cpus.commit.op_class_0::FloatCmp            0      0.00%     62.72% # Class of committed instruction
system.switch_cpus.commit.op_class_0::FloatCvt            0      0.00%     62.72% # Class of committed instruction
system.switch_cpus.commit.op_class_0::FloatMult            0      0.00%     62.72% # Class of committed instruction
system.switch_cpus.commit.op_class_0::FloatMultAcc            0      0.00%     62.72% # Class of committed instruction
system.switch_cpus.commit.op_class_0::FloatDiv            0      0.00%     62.72% # Class of committed instruction
system.switch_cpus.commit.op_class_0::FloatMisc            0      0.00%     62.72% # Class of committed instruction
system.switch_cpus.commit.op_class_0::FloatSqrt            0      0.00%     62.72% # Class of committed instruction
system.switch_cpus.commit.op_class_0::SimdAdd        20986      0.13%     62.85% # Class of committed instruction
system.switch_cpus.commit.op_class_0::SimdAddAcc            0      0.00%     62.85% # Class of committed instruction
system.switch_cpus.commit.op_class_0::SimdAlu       329262      2.05%     64.90% # Class of committed instruction
system.switch_cpus.commit.op_class_0::SimdCmp            0      0.00%     64.90% # Class of committed instruction
system.switch_cpus.commit.op_class_0::SimdCvt       127366      0.79%     65.69% # Class of committed instruction
system.switch_cpus.commit.op_class_0::SimdMisc       161050      1.00%     66.70% # Class of committed instruction
system.switch_cpus.commit.op_class_0::SimdMult            0      0.00%     66.70% # Class of committed instruction
system.switch_cpus.commit.op_class_0::SimdMultAcc            0      0.00%     66.70% # Class of committed instruction
system.switch_cpus.commit.op_class_0::SimdShift        62958      0.39%     67.09% # Class of committed instruction
system.switch_cpus.commit.op_class_0::SimdShiftAcc            0      0.00%     67.09% # Class of committed instruction
system.switch_cpus.commit.op_class_0::SimdDiv            0      0.00%     67.09% # Class of committed instruction
system.switch_cpus.commit.op_class_0::SimdSqrt            0      0.00%     67.09% # Class of committed instruction
system.switch_cpus.commit.op_class_0::SimdFloatAdd       110449      0.69%     67.78% # Class of committed instruction
system.switch_cpus.commit.op_class_0::SimdFloatAlu            0      0.00%     67.78% # Class of committed instruction
system.switch_cpus.commit.op_class_0::SimdFloatCmp           31      0.00%     67.78% # Class of committed instruction
system.switch_cpus.commit.op_class_0::SimdFloatCvt       154150      0.96%     68.74% # Class of committed instruction
system.switch_cpus.commit.op_class_0::SimdFloatDiv        21677      0.13%     68.87% # Class of committed instruction
system.switch_cpus.commit.op_class_0::SimdFloatMisc            0      0.00%     68.87% # Class of committed instruction
system.switch_cpus.commit.op_class_0::SimdFloatMult        11191      0.07%     68.94% # Class of committed instruction
system.switch_cpus.commit.op_class_0::SimdFloatMultAcc            0      0.00%     68.94% # Class of committed instruction
system.switch_cpus.commit.op_class_0::SimdFloatSqrt            0      0.00%     68.94% # Class of committed instruction
system.switch_cpus.commit.op_class_0::SimdReduceAdd            0      0.00%     68.94% # Class of committed instruction
system.switch_cpus.commit.op_class_0::SimdReduceAlu            0      0.00%     68.94% # Class of committed instruction
system.switch_cpus.commit.op_class_0::SimdReduceCmp            0      0.00%     68.94% # Class of committed instruction
system.switch_cpus.commit.op_class_0::SimdFloatReduceAdd            0      0.00%     68.94% # Class of committed instruction
system.switch_cpus.commit.op_class_0::SimdFloatReduceCmp            0      0.00%     68.94% # Class of committed instruction
system.switch_cpus.commit.op_class_0::SimdAes            0      0.00%     68.94% # Class of committed instruction
system.switch_cpus.commit.op_class_0::SimdAesMix            0      0.00%     68.94% # Class of committed instruction
system.switch_cpus.commit.op_class_0::SimdSha1Hash            0      0.00%     68.94% # Class of committed instruction
system.switch_cpus.commit.op_class_0::SimdSha1Hash2            0      0.00%     68.94% # Class of committed instruction
system.switch_cpus.commit.op_class_0::SimdSha256Hash            0      0.00%     68.94% # Class of committed instruction
system.switch_cpus.commit.op_class_0::SimdSha256Hash2            0      0.00%     68.94% # Class of committed instruction
system.switch_cpus.commit.op_class_0::SimdShaSigma2            0      0.00%     68.94% # Class of committed instruction
system.switch_cpus.commit.op_class_0::SimdShaSigma3            0      0.00%     68.94% # Class of committed instruction
system.switch_cpus.commit.op_class_0::SimdPredAlu            0      0.00%     68.94% # Class of committed instruction
system.switch_cpus.commit.op_class_0::MemRead      3367523     20.96%     89.90% # Class of committed instruction
system.switch_cpus.commit.op_class_0::MemWrite      1393220      8.67%     98.58% # Class of committed instruction
system.switch_cpus.commit.op_class_0::FloatMemRead       228011      1.42%    100.00% # Class of committed instruction
system.switch_cpus.commit.op_class_0::FloatMemWrite          334      0.00%    100.00% # Class of committed instruction
system.switch_cpus.commit.op_class_0::IprAccess            0      0.00%    100.00% # Class of committed instruction
system.switch_cpus.commit.op_class_0::InstPrefetch            0      0.00%    100.00% # Class of committed instruction
system.switch_cpus.commit.op_class_0::total     16062736                       # Class of committed instruction
system.switch_cpus.commit.refs                4989088                       # Number of memory references committed
system.switch_cpus.commit.swp_count                 0                       # Number of s/w prefetches committed
system.switch_cpus.commit.vec_insts                 0                       # Number of committed Vector instructions.
system.switch_cpus.committedInsts            10000001                       # Number of Instructions Simulated
system.switch_cpus.committedOps              16062736                       # Number of Ops (including micro ops) Simulated
system.switch_cpus.cpi                       0.515942                       # CPI: Cycles Per Instruction
system.switch_cpus.cpi_total                 0.515942                       # CPI: Total CPI of All Threads
system.switch_cpus.decode.BlockedCycles       2243001                       # Number of cycles decode is blocked
system.switch_cpus.decode.DecodedInsts       17662195                       # Number of instructions handled by decode
system.switch_cpus.decode.IdleCycles           555656                       # Number of cycles decode is idle
system.switch_cpus.decode.RunCycles           1570196                       # Number of cycles decode is running
system.switch_cpus.decode.SquashCycles          20550                       # Number of cycles decode is squashing
system.switch_cpus.decode.UnblockCycles        760280                       # Number of cycles decode is unblocking
system.switch_cpus.dtb.rdAccesses             3684601                       # TLB accesses on read requests
system.switch_cpus.dtb.rdMisses                    59                       # TLB misses on read requests
system.switch_cpus.dtb.wrAccesses             1407361                       # TLB accesses on write requests
system.switch_cpus.dtb.wrMisses                    79                       # TLB misses on write requests
system.switch_cpus.fetch.Branches              953729                       # Number of branches that fetch encountered
system.switch_cpus.fetch.CacheLines            854696                       # Number of cache lines fetched
system.switch_cpus.fetch.Cycles               4260323                       # Number of cycles fetch has run and was not squashing or blocked
system.switch_cpus.fetch.IcacheSquashes          3906                       # Number of outstanding Icache misses that were squashed
system.switch_cpus.fetch.Insts               10961656                       # Number of instructions fetch has processed
system.switch_cpus.fetch.MiscStallCycles           23                       # Number of cycles fetch has spent waiting on interrupts, or bad addresses, or out of MSHRs
system.switch_cpus.fetch.PendingTrapStallCycles          144                       # Number of stall cycles due to pending traps
system.switch_cpus.fetch.SquashCycles           41100                       # Number of cycles fetch has spent squashing
system.switch_cpus.fetch.branchRate          0.184852                       # Number of branch fetches per cycle
system.switch_cpus.fetch.icacheStallCycles       868648                       # Number of cycles fetch is stalled on an Icache miss
system.switch_cpus.fetch.predictedBranches       545467                       # Number of branches that fetch has predicted taken
system.switch_cpus.fetch.rate                2.124591                       # Number of inst fetches per cycle
system.switch_cpus.fetch.rateDist::samples      5149688                       # Number of instructions fetched each cycle (Total)
system.switch_cpus.fetch.rateDist::mean      3.475960                       # Number of instructions fetched each cycle (Total)
system.switch_cpus.fetch.rateDist::stdev     3.556917                       # Number of instructions fetched each cycle (Total)
system.switch_cpus.fetch.rateDist::underflows            0      0.00%      0.00% # Number of instructions fetched each cycle (Total)
system.switch_cpus.fetch.rateDist::0          2337388     45.39%     45.39% # Number of instructions fetched each cycle (Total)
system.switch_cpus.fetch.rateDist::1           138114      2.68%     48.07% # Number of instructions fetched each cycle (Total)
system.switch_cpus.fetch.rateDist::2           101499      1.97%     50.04% # Number of instructions fetched each cycle (Total)
system.switch_cpus.fetch.rateDist::3           147198      2.86%     52.90% # Number of instructions fetched each cycle (Total)
system.switch_cpus.fetch.rateDist::4           180260      3.50%     56.40% # Number of instructions fetched each cycle (Total)
system.switch_cpus.fetch.rateDist::5           344497      6.69%     63.09% # Number of instructions fetched each cycle (Total)
system.switch_cpus.fetch.rateDist::6           169748      3.30%     66.39% # Number of instructions fetched each cycle (Total)
system.switch_cpus.fetch.rateDist::7           192483      3.74%     70.12% # Number of instructions fetched each cycle (Total)
system.switch_cpus.fetch.rateDist::8          1538501     29.88%    100.00% # Number of instructions fetched each cycle (Total)
system.switch_cpus.fetch.rateDist::overflows            0      0.00%    100.00% # Number of instructions fetched each cycle (Total)
system.switch_cpus.fetch.rateDist::min_value            0                       # Number of instructions fetched each cycle (Total)
system.switch_cpus.fetch.rateDist::max_value            8                       # Number of instructions fetched each cycle (Total)
system.switch_cpus.fetch.rateDist::total      5149688                       # Number of instructions fetched each cycle (Total)
system.switch_cpus.fp_regfile_reads           2768192                       # number of floating regfile reads
system.switch_cpus.fp_regfile_writes          1378546                       # number of floating regfile writes
system.switch_cpus.idleCycles                    9731                       # Total number of cycles that the CPU has spent unscheduled due to idling
system.switch_cpus.iew.branchMispredicts        34014                       # Number of branch mispredicts detected at execute
system.switch_cpus.iew.exec_branches           789134                       # Number of branches executed
system.switch_cpus.iew.exec_nop                     0                       # number of nop insts executed
system.switch_cpus.iew.exec_rate             3.256765                       # Inst execution rate
system.switch_cpus.iew.exec_refs              5086120                       # number of memory reference insts executed
system.switch_cpus.iew.exec_stores            1407361                       # Number of stores executed
system.switch_cpus.iew.exec_swp                     0                       # number of swp insts executed
system.switch_cpus.iew.iewBlockCycles          147612                       # Number of cycles IEW is blocking
system.switch_cpus.iew.iewDispLoadInsts       3711643                       # Number of dispatched load instructions
system.switch_cpus.iew.iewDispNonSpecInsts            1                       # Number of dispatched non-speculative instructions
system.switch_cpus.iew.iewDispSquashedInsts          580                       # Number of squashed instructions skipped by dispatch
system.switch_cpus.iew.iewDispStoreInsts      1423926                       # Number of dispatched store instructions
system.switch_cpus.iew.iewDispatchedInsts     17312660                       # Number of instructions dispatched to IQ
system.switch_cpus.iew.iewExecLoadInsts       3678759                       # Number of load instructions executed
system.switch_cpus.iew.iewExecSquashedInsts        33973                       # Number of squashed instructions skipped in execute
system.switch_cpus.iew.iewExecutedInsts      16803015                       # Number of executed instructions
system.switch_cpus.iew.iewIQFullEvents            101                       # Number of times the IQ has become full, causing a stall
system.switch_cpus.iew.iewIdleCycles                0                       # Number of cycles IEW is idle
system.switch_cpus.iew.iewLSQFullEvents         15694                       # Number of times the LSQ has become full, causing a stall
system.switch_cpus.iew.iewSquashCycles          20550                       # Number of cycles IEW is squashing
system.switch_cpus.iew.iewUnblockCycles         15816                       # Number of cycles IEW is unblocking
system.switch_cpus.iew.lsq.thread0.blockedLoads            0                       # Number of blocked loads due to partial load-store forwarding
system.switch_cpus.iew.lsq.thread0.cacheBlocked          125                       # Number of times an access to memory failed due to the cache being blocked
system.switch_cpus.iew.lsq.thread0.forwLoads       383831                       # Number of loads that had data forwarded from stores
system.switch_cpus.iew.lsq.thread0.ignoredResponses           47                       # Number of memory responses ignored because the instruction is squashed
system.switch_cpus.iew.lsq.thread0.invAddrLoads            0                       # Number of loads ignored due to an invalid address
system.switch_cpus.iew.lsq.thread0.invAddrSwpfs            0                       # Number of software prefetches ignored due to an invalid address
system.switch_cpus.iew.lsq.thread0.memOrderViolation          266                       # Number of memory ordering violations
system.switch_cpus.iew.lsq.thread0.rescheduledLoads            0                       # Number of loads that were rescheduled
system.switch_cpus.iew.lsq.thread0.squashedLoads       116093                       # Number of loads squashed
system.switch_cpus.iew.lsq.thread0.squashedStores        30366                       # Number of stores squashed
system.switch_cpus.iew.memOrderViolationEvents          266                       # Number of memory order violations
system.switch_cpus.iew.predictedNotTakenIncorrect        28533                       # Number of branches that were predicted not taken incorrectly
system.switch_cpus.iew.predictedTakenIncorrect         5481                       # Number of branches that were predicted taken incorrectly
system.switch_cpus.iew.wb_consumers          26997762                       # num instructions consuming a value
system.switch_cpus.iew.wb_count              16785771                       # cumulative count of insts written-back
system.switch_cpus.iew.wb_fanout             0.498470                       # average fanout of values written-back
system.switch_cpus.iew.wb_producers          13457572                       # num instructions producing a value
system.switch_cpus.iew.wb_rate               3.253423                       # insts written-back per cycle
system.switch_cpus.iew.wb_sent               16792842                       # cumulative count of insts sent to commit
system.switch_cpus.int_regfile_reads         29027572                       # number of integer regfile reads
system.switch_cpus.int_regfile_writes        13107714                       # number of integer regfile writes
system.switch_cpus.ipc                       1.938203                       # IPC: Instructions Per Cycle
system.switch_cpus.ipc_total                 1.938203                       # IPC: Total IPC of All Threads
system.switch_cpus.iq.FU_type_0::No_OpClass       100160      0.59%      0.59% # Type of FU issued
system.switch_cpus.iq.FU_type_0::IntAlu      10437776     61.99%     62.59% # Type of FU issued
system.switch_cpus.iq.FU_type_0::IntMult        88155      0.52%     63.11% # Type of FU issued
system.switch_cpus.iq.FU_type_0::IntDiv             0      0.00%     63.11% # Type of FU issued
system.switch_cpus.iq.FU_type_0::FloatAdd        35183      0.21%     63.32% # Type of FU issued
system.switch_cpus.iq.FU_type_0::FloatCmp            0      0.00%     63.32% # Type of FU issued
system.switch_cpus.iq.FU_type_0::FloatCvt            0      0.00%     63.32% # Type of FU issued
system.switch_cpus.iq.FU_type_0::FloatMult            0      0.00%     63.32% # Type of FU issued
system.switch_cpus.iq.FU_type_0::FloatMultAcc            0      0.00%     63.32% # Type of FU issued
system.switch_cpus.iq.FU_type_0::FloatDiv            0      0.00%     63.32% # Type of FU issued
system.switch_cpus.iq.FU_type_0::FloatMisc            0      0.00%     63.32% # Type of FU issued
system.switch_cpus.iq.FU_type_0::FloatSqrt            0      0.00%     63.32% # Type of FU issued
system.switch_cpus.iq.FU_type_0::SimdAdd        20986      0.12%     63.45% # Type of FU issued
system.switch_cpus.iq.FU_type_0::SimdAddAcc            0      0.00%     63.45% # Type of FU issued
system.switch_cpus.iq.FU_type_0::SimdAlu       343101      2.04%     65.48% # Type of FU issued
system.switch_cpus.iq.FU_type_0::SimdCmp            0      0.00%     65.48% # Type of FU issued
system.switch_cpus.iq.FU_type_0::SimdCvt       130079      0.77%     66.26% # Type of FU issued
system.switch_cpus.iq.FU_type_0::SimdMisc       163085      0.97%     67.22% # Type of FU issued
system.switch_cpus.iq.FU_type_0::SimdMult            0      0.00%     67.22% # Type of FU issued
system.switch_cpus.iq.FU_type_0::SimdMultAcc            0      0.00%     67.22% # Type of FU issued
system.switch_cpus.iq.FU_type_0::SimdShift        63032      0.37%     67.60% # Type of FU issued
system.switch_cpus.iq.FU_type_0::SimdShiftAcc            0      0.00%     67.60% # Type of FU issued
system.switch_cpus.iq.FU_type_0::SimdDiv            0      0.00%     67.60% # Type of FU issued
system.switch_cpus.iq.FU_type_0::SimdSqrt            0      0.00%     67.60% # Type of FU issued
system.switch_cpus.iq.FU_type_0::SimdFloatAdd       142143      0.84%     68.44% # Type of FU issued
system.switch_cpus.iq.FU_type_0::SimdFloatAlu            0      0.00%     68.44% # Type of FU issued
system.switch_cpus.iq.FU_type_0::SimdFloatCmp           55      0.00%     68.44% # Type of FU issued
system.switch_cpus.iq.FU_type_0::SimdFloatCvt       179958      1.07%     69.51% # Type of FU issued
system.switch_cpus.iq.FU_type_0::SimdFloatDiv        23620      0.14%     69.65% # Type of FU issued
system.switch_cpus.iq.FU_type_0::SimdFloatMisc            0      0.00%     69.65% # Type of FU issued
system.switch_cpus.iq.FU_type_0::SimdFloatMult        13188      0.08%     69.73% # Type of FU issued
system.switch_cpus.iq.FU_type_0::SimdFloatMultAcc            0      0.00%     69.73% # Type of FU issued
system.switch_cpus.iq.FU_type_0::SimdFloatSqrt            0      0.00%     69.73% # Type of FU issued
system.switch_cpus.iq.FU_type_0::SimdReduceAdd            0      0.00%     69.73% # Type of FU issued
system.switch_cpus.iq.FU_type_0::SimdReduceAlu            0      0.00%     69.73% # Type of FU issued
system.switch_cpus.iq.FU_type_0::SimdReduceCmp            0      0.00%     69.73% # Type of FU issued
system.switch_cpus.iq.FU_type_0::SimdFloatReduceAdd            0      0.00%     69.73% # Type of FU issued
system.switch_cpus.iq.FU_type_0::SimdFloatReduceCmp            0      0.00%     69.73% # Type of FU issued
system.switch_cpus.iq.FU_type_0::SimdAes            0      0.00%     69.73% # Type of FU issued
system.switch_cpus.iq.FU_type_0::SimdAesMix            0      0.00%     69.73% # Type of FU issued
system.switch_cpus.iq.FU_type_0::SimdSha1Hash            0      0.00%     69.73% # Type of FU issued
system.switch_cpus.iq.FU_type_0::SimdSha1Hash2            0      0.00%     69.73% # Type of FU issued
system.switch_cpus.iq.FU_type_0::SimdSha256Hash            0      0.00%     69.73% # Type of FU issued
system.switch_cpus.iq.FU_type_0::SimdSha256Hash2            0      0.00%     69.73% # Type of FU issued
system.switch_cpus.iq.FU_type_0::SimdShaSigma2            0      0.00%     69.73% # Type of FU issued
system.switch_cpus.iq.FU_type_0::SimdShaSigma3            0      0.00%     69.73% # Type of FU issued
system.switch_cpus.iq.FU_type_0::SimdPredAlu            0      0.00%     69.73% # Type of FU issued
system.switch_cpus.iq.FU_type_0::MemRead      3403455     20.21%     89.94% # Type of FU issued
system.switch_cpus.iq.FU_type_0::MemWrite      1408908      8.37%     98.31% # Type of FU issued
system.switch_cpus.iq.FU_type_0::FloatMemRead       283622      1.68%    100.00% # Type of FU issued
system.switch_cpus.iq.FU_type_0::FloatMemWrite          485      0.00%    100.00% # Type of FU issued
system.switch_cpus.iq.FU_type_0::IprAccess            0      0.00%    100.00% # Type of FU issued
system.switch_cpus.iq.FU_type_0::InstPrefetch            0      0.00%    100.00% # Type of FU issued
system.switch_cpus.iq.FU_type_0::total       16836991                       # Type of FU issued
system.switch_cpus.iq.fp_alu_accesses         1598623                       # Number of floating point alu accesses
system.switch_cpus.iq.fp_inst_queue_reads      3176380                       # Number of floating instruction queue reads
system.switch_cpus.iq.fp_inst_queue_wakeup_accesses      1560251                       # Number of floating instruction queue wakeup accesses
system.switch_cpus.iq.fp_inst_queue_writes      1912998                       # Number of floating instruction queue writes
system.switch_cpus.iq.fu_busy_cnt              194192                       # FU busy when requested
system.switch_cpus.iq.fu_busy_rate           0.011534                       # FU busy rate (busy events/executed inst)
system.switch_cpus.iq.fu_full::No_OpClass            0      0.00%      0.00% # attempts to use FU when none available
system.switch_cpus.iq.fu_full::IntAlu          118484     61.01%     61.01% # attempts to use FU when none available
system.switch_cpus.iq.fu_full::IntMult              0      0.00%     61.01% # attempts to use FU when none available
system.switch_cpus.iq.fu_full::IntDiv               0      0.00%     61.01% # attempts to use FU when none available
system.switch_cpus.iq.fu_full::FloatAdd             0      0.00%     61.01% # attempts to use FU when none available
system.switch_cpus.iq.fu_full::FloatCmp             0      0.00%     61.01% # attempts to use FU when none available
system.switch_cpus.iq.fu_full::FloatCvt             0      0.00%     61.01% # attempts to use FU when none available
system.switch_cpus.iq.fu_full::FloatMult            0      0.00%     61.01% # attempts to use FU when none available
system.switch_cpus.iq.fu_full::FloatMultAcc            0      0.00%     61.01% # attempts to use FU when none available
system.switch_cpus.iq.fu_full::FloatDiv             0      0.00%     61.01% # attempts to use FU when none available
system.switch_cpus.iq.fu_full::FloatMisc            0      0.00%     61.01% # attempts to use FU when none available
system.switch_cpus.iq.fu_full::FloatSqrt            0      0.00%     61.01% # attempts to use FU when none available
system.switch_cpus.iq.fu_full::SimdAdd              0      0.00%     61.01% # attempts to use FU when none available
system.switch_cpus.iq.fu_full::SimdAddAcc            0      0.00%     61.01% # attempts to use FU when none available
system.switch_cpus.iq.fu_full::SimdAlu            115      0.06%     61.07% # attempts to use FU when none available
system.switch_cpus.iq.fu_full::SimdCmp              0      0.00%     61.07% # attempts to use FU when none available
system.switch_cpus.iq.fu_full::SimdCvt           3433      1.77%     62.84% # attempts to use FU when none available
system.switch_cpus.iq.fu_full::SimdMisc            20      0.01%     62.85% # attempts to use FU when none available
system.switch_cpus.iq.fu_full::SimdMult             0      0.00%     62.85% # attempts to use FU when none available
system.switch_cpus.iq.fu_full::SimdMultAcc            0      0.00%     62.85% # attempts to use FU when none available
system.switch_cpus.iq.fu_full::SimdShift            0      0.00%     62.85% # attempts to use FU when none available
system.switch_cpus.iq.fu_full::SimdShiftAcc            0      0.00%     62.85% # attempts to use FU when none available
system.switch_cpus.iq.fu_full::SimdDiv              0      0.00%     62.85% # attempts to use FU when none available
system.switch_cpus.iq.fu_full::SimdSqrt             0      0.00%     62.85% # attempts to use FU when none available
system.switch_cpus.iq.fu_full::SimdFloatAdd         1355      0.70%     63.55% # attempts to use FU when none available
system.switch_cpus.iq.fu_full::SimdFloatAlu            0      0.00%     63.55% # attempts to use FU when none available
system.switch_cpus.iq.fu_full::SimdFloatCmp            0      0.00%     63.55% # attempts to use FU when none available
system.switch_cpus.iq.fu_full::SimdFloatCvt        10056      5.18%     68.73% # attempts to use FU when none available
system.switch_cpus.iq.fu_full::SimdFloatDiv            0      0.00%     68.73% # attempts to use FU when none available
system.switch_cpus.iq.fu_full::SimdFloatMisc            0      0.00%     68.73% # attempts to use FU when none available
system.switch_cpus.iq.fu_full::SimdFloatMult            0      0.00%     68.73% # attempts to use FU when none available
system.switch_cpus.iq.fu_full::SimdFloatMultAcc            0      0.00%     68.73% # attempts to use FU when none available
system.switch_cpus.iq.fu_full::SimdFloatSqrt            0      0.00%     68.73% # attempts to use FU when none available
system.switch_cpus.iq.fu_full::SimdReduceAdd            0      0.00%     68.73% # attempts to use FU when none available
system.switch_cpus.iq.fu_full::SimdReduceAlu            0      0.00%     68.73% # attempts to use FU when none available
system.switch_cpus.iq.fu_full::SimdReduceCmp            0      0.00%     68.73% # attempts to use FU when none available
system.switch_cpus.iq.fu_full::SimdFloatReduceAdd            0      0.00%     68.73% # attempts to use FU when none available
system.switch_cpus.iq.fu_full::SimdFloatReduceCmp            0      0.00%     68.73% # attempts to use FU when none available
system.switch_cpus.iq.fu_full::SimdAes              0      0.00%     68.73% # attempts to use FU when none available
system.switch_cpus.iq.fu_full::SimdAesMix            0      0.00%     68.73% # attempts to use FU when none available
system.switch_cpus.iq.fu_full::SimdSha1Hash            0      0.00%     68.73% # attempts to use FU when none available
system.switch_cpus.iq.fu_full::SimdSha1Hash2            0      0.00%     68.73% # attempts to use FU when none available
system.switch_cpus.iq.fu_full::SimdSha256Hash            0      0.00%     68.73% # attempts to use FU when none available
system.switch_cpus.iq.fu_full::SimdSha256Hash2            0      0.00%     68.73% # attempts to use FU when none available
system.switch_cpus.iq.fu_full::SimdShaSigma2            0      0.00%     68.73% # attempts to use FU when none available
system.switch_cpus.iq.fu_full::SimdShaSigma3            0      0.00%     68.73% # attempts to use FU when none available
system.switch_cpus.iq.fu_full::SimdPredAlu            0      0.00%     68.73% # attempts to use FU when none available
system.switch_cpus.iq.fu_full::MemRead          53911     27.76%     96.49% # attempts to use FU when none available
system.switch_cpus.iq.fu_full::MemWrite           436      0.22%     96.71% # attempts to use FU when none available
system.switch_cpus.iq.fu_full::FloatMemRead         6382      3.29%    100.00% # attempts to use FU when none available
system.switch_cpus.iq.fu_full::FloatMemWrite            0      0.00%    100.00% # attempts to use FU when none available
system.switch_cpus.iq.fu_full::IprAccess            0      0.00%    100.00% # attempts to use FU when none available
system.switch_cpus.iq.fu_full::InstPrefetch            0      0.00%    100.00% # attempts to use FU when none available
system.switch_cpus.iq.int_alu_accesses       15332400                       # Number of integer alu accesses
system.switch_cpus.iq.int_inst_queue_reads     35918698                       # Number of integer instruction queue reads
system.switch_cpus.iq.int_inst_queue_wakeup_accesses     15225520                       # Number of integer instruction queue wakeup accesses
system.switch_cpus.iq.int_inst_queue_writes     16649792                       # Number of integer instruction queue writes
system.switch_cpus.iq.iqInstsAdded           17312655                       # Number of instructions added to the IQ (excludes non-spec)
system.switch_cpus.iq.iqInstsIssued          16836991                       # Number of instructions issued
system.switch_cpus.iq.iqNonSpecInstsAdded            5                       # Number of non-speculative instructions added to the IQ
system.switch_cpus.iq.iqSquashedInstsExamined      1249866                       # Number of squashed instructions iterated over during squash; mainly for profiling
system.switch_cpus.iq.iqSquashedInstsIssued        77219                       # Number of squashed instructions issued
system.switch_cpus.iq.iqSquashedNonSpecRemoved            5                       # Number of squashed non-spec instructions that were removed
system.switch_cpus.iq.iqSquashedOperandsExamined      1774424                       # Number of squashed operands that are examined and possibly removed from graph
system.switch_cpus.iq.issued_per_cycle::samples      5149688                       # Number of insts issued each cycle
system.switch_cpus.iq.issued_per_cycle::mean     3.269517                       # Number of insts issued each cycle
system.switch_cpus.iq.issued_per_cycle::stdev     2.221230                       # Number of insts issued each cycle
system.switch_cpus.iq.issued_per_cycle::underflows            0      0.00%      0.00% # Number of insts issued each cycle
system.switch_cpus.iq.issued_per_cycle::0       616621     11.97%     11.97% # Number of insts issued each cycle
system.switch_cpus.iq.issued_per_cycle::1       602061     11.69%     23.67% # Number of insts issued each cycle
system.switch_cpus.iq.issued_per_cycle::2       882546     17.14%     40.80% # Number of insts issued each cycle
system.switch_cpus.iq.issued_per_cycle::3       846022     16.43%     57.23% # Number of insts issued each cycle
system.switch_cpus.iq.issued_per_cycle::4       721520     14.01%     71.24% # Number of insts issued each cycle
system.switch_cpus.iq.issued_per_cycle::5       621709     12.07%     83.32% # Number of insts issued each cycle
system.switch_cpus.iq.issued_per_cycle::6       340838      6.62%     89.93% # Number of insts issued each cycle
system.switch_cpus.iq.issued_per_cycle::7       254849      4.95%     94.88% # Number of insts issued each cycle
system.switch_cpus.iq.issued_per_cycle::8       263522      5.12%    100.00% # Number of insts issued each cycle
system.switch_cpus.iq.issued_per_cycle::overflows            0      0.00%    100.00% # Number of insts issued each cycle
system.switch_cpus.iq.issued_per_cycle::min_value            0                       # Number of insts issued each cycle
system.switch_cpus.iq.issued_per_cycle::max_value            8                       # Number of insts issued each cycle
system.switch_cpus.iq.issued_per_cycle::total      5149688                       # Number of insts issued each cycle
system.switch_cpus.iq.rate                   3.263350                       # Inst issue rate
system.switch_cpus.iq.vec_alu_accesses              0                       # Number of vector alu accesses
system.switch_cpus.iq.vec_inst_queue_reads            0                       # Number of vector instruction queue reads
system.switch_cpus.iq.vec_inst_queue_wakeup_accesses            0                       # Number of vector instruction queue wakeup accesses
system.switch_cpus.iq.vec_inst_queue_writes            0                       # Number of vector instruction queue writes
system.switch_cpus.itb.rdAccesses                   0                       # TLB accesses on read requests
system.switch_cpus.itb.rdMisses                     0                       # TLB misses on read requests
system.switch_cpus.itb.wrAccesses              854720                       # TLB accesses on write requests
system.switch_cpus.itb.wrMisses                    38                       # TLB misses on write requests
system.switch_cpus.memDep0.conflictingLoads       361919                       # Number of conflicting loads.
system.switch_cpus.memDep0.conflictingStores       310503                       # Number of conflicting stores.
system.switch_cpus.memDep0.insertedLoads      3711643                       # Number of loads inserted to the mem dependence unit.
system.switch_cpus.memDep0.insertedStores      1423926                       # Number of stores inserted to the mem dependence unit.
system.switch_cpus.misc_regfile_reads         6737220                       # number of misc regfile reads
system.switch_cpus.misc_regfile_writes              1                       # number of misc regfile writes
system.switch_cpus.numCycles                  5159419                       # number of cpu cycles simulated
system.switch_cpus.numWorkItemsCompleted            0                       # number of work items this cpu completed
system.switch_cpus.numWorkItemsStarted              0                       # number of work items this cpu started
system.switch_cpus.rename.BlockCycles          193359                       # Number of cycles rename is blocking
system.switch_cpus.rename.CommittedMaps      20752203                       # Number of HB maps that are committed
system.switch_cpus.rename.IQFullEvents         143329                       # Number of times rename has blocked due to IQ full
system.switch_cpus.rename.IdleCycles           872600                       # Number of cycles rename is idle
system.switch_cpus.rename.LQFullEvents         512746                       # Number of times rename has blocked due to LQ full
system.switch_cpus.rename.ROBFullEvents          2302                       # Number of times rename has blocked due to ROB full
system.switch_cpus.rename.RenameLookups      54989053                       # Number of register rename lookups that rename has made
system.switch_cpus.rename.RenamedInsts       17544981                       # Number of instructions processed by rename
system.switch_cpus.rename.RenamedOperands     22515896                       # Number of destination operands rename has renamed
system.switch_cpus.rename.RunCycles           2002576                       # Number of cycles rename is running
system.switch_cpus.rename.SQFullEvents        1154033                       # Number of times rename has blocked due to SQ full
system.switch_cpus.rename.SquashCycles          20550                       # Number of cycles rename is squashing
system.switch_cpus.rename.UnblockCycles       2060598                       # Number of cycles rename is unblocking
system.switch_cpus.rename.UndoneMaps          1763597                       # Number of HB maps that are undone due to squashing
system.switch_cpus.rename.fp_rename_lookups      3037045                       # Number of floating rename lookups
system.switch_cpus.rename.int_rename_lookups     30045217                       # Number of integer rename lookups
system.switch_cpus.rename.serializeStallCycles            0                       # count of cycles rename stalled for serializing inst
system.switch_cpus.rename.serializingInsts            0                       # count of serializing insts renamed
system.switch_cpus.rename.skidInsts           4146402                       # count of insts added to the skid buffer
system.switch_cpus.rename.tempSerializingInsts            0                       # count of temporary serializing insts renamed
system.switch_cpus.rob.rob_reads             21021930                       # The number of ROB reads
system.switch_cpus.rob.rob_writes            34793192                       # The number of ROB writes
system.switch_cpus.timesIdled                     142                       # Number of times that the entire CPU went into an idle state and unscheduled itself
system.tol2bus.snoop_filter.hit_multi_requests            0                       # Number of requests hitting in the snoop filter with multiple (>1) holders of the requested data.
system.tol2bus.snoop_filter.hit_multi_snoops            0                       # Number of snoops hitting in the snoop filter with multiple (>1) holders of the requested data.
system.tol2bus.snoop_filter.hit_single_requests        24463                       # Number of requests hitting in the snoop filter with a single holder of the requested data.
system.tol2bus.snoop_filter.hit_single_snoops           41                       # Number of snoops hitting in the snoop filter with a single holder of the requested data.
system.tol2bus.snoop_filter.tot_requests        50071                       # Total number of requests made to the snoop filter.
system.tol2bus.snoop_filter.tot_snoops             41                       # Total number of snoops made to the snoop filter.
system.membus.pwrStateResidencyTicks::UNDEFINED 120508019796000                       # Cumulative time (in ticks) in various power states
system.membus.trans_dist::ReadResp               1001                       # Transaction distribution
system.membus.trans_dist::WritebackDirty           15                       # Transaction distribution
system.membus.trans_dist::CleanEvict                7                       # Transaction distribution
system.membus.trans_dist::ReadExReq              1543                       # Transaction distribution
system.membus.trans_dist::ReadExResp             1543                       # Transaction distribution
system.membus.trans_dist::ReadSharedReq          1001                       # Transaction distribution
system.membus.pkt_count_system.l2.mem_side::system.mem_ctrls.port         5110                       # Packet count per connected master and slave (bytes)
system.membus.pkt_count_system.l2.mem_side::total         5110                       # Packet count per connected master and slave (bytes)
system.membus.pkt_count::total                   5110                       # Packet count per connected master and slave (bytes)
system.membus.pkt_size_system.l2.mem_side::system.mem_ctrls.port       163776                       # Cumulative packet size per connected master and slave (bytes)
system.membus.pkt_size_system.l2.mem_side::total       163776                       # Cumulative packet size per connected master and slave (bytes)
system.membus.pkt_size::total                  163776                       # Cumulative packet size per connected master and slave (bytes)
system.membus.snoops                                0                       # Total snoops (count)
system.membus.snoopTraffic                          0                       # Total snoop traffic (bytes)
system.membus.snoop_fanout::samples              2544                       # Request fanout histogram
system.membus.snoop_fanout::mean                    0                       # Request fanout histogram
system.membus.snoop_fanout::stdev                   0                       # Request fanout histogram
system.membus.snoop_fanout::underflows              0      0.00%      0.00% # Request fanout histogram
system.membus.snoop_fanout::0                    2544    100.00%    100.00% # Request fanout histogram
system.membus.snoop_fanout::1                       0      0.00%    100.00% # Request fanout histogram
system.membus.snoop_fanout::overflows               0      0.00%    100.00% # Request fanout histogram
system.membus.snoop_fanout::min_value               0                       # Request fanout histogram
system.membus.snoop_fanout::max_value               0                       # Request fanout histogram
system.membus.snoop_fanout::total                2544                       # Request fanout histogram
system.membus.reqLayer2.occupancy             3115498                       # Layer occupancy (ticks)
system.membus.reqLayer2.utilization               0.1                       # Layer utilization (%)
system.membus.respLayer1.occupancy           13326500                       # Layer occupancy (ticks)
system.membus.respLayer1.utilization              0.5                       # Layer utilization (%)
system.switch_cpus.pwrStateResidencyTicks::OFF   2579719750                       # Cumulative time (in ticks) in various power states
system.switch_cpus.dtb.walker.pwrStateResidencyTicks::UNDEFINED 120508019796000                       # Cumulative time (in ticks) in various power states
system.switch_cpus.itb.walker.pwrStateResidencyTicks::UNDEFINED 120508019796000                       # Cumulative time (in ticks) in various power states
system.tol2bus.pwrStateResidencyTicks::UNDEFINED 120508019796000                       # Cumulative time (in ticks) in various power states
system.tol2bus.trans_dist::ReadResp              6433                       # Transaction distribution
system.tol2bus.trans_dist::WritebackDirty        18955                       # Transaction distribution
system.tol2bus.trans_dist::WritebackClean          240                       # Transaction distribution
system.tol2bus.trans_dist::CleanEvict            5327                       # Transaction distribution
system.tol2bus.trans_dist::HardPFReq              916                       # Transaction distribution
system.tol2bus.trans_dist::ReadExReq            19175                       # Transaction distribution
system.tol2bus.trans_dist::ReadExResp           19175                       # Transaction distribution
system.tol2bus.trans_dist::ReadCleanReq           361                       # Transaction distribution
system.tol2bus.trans_dist::ReadSharedReq         6072                       # Transaction distribution
system.tol2bus.pkt_count_system.cpu.icache.mem_side::system.l2.cpu_side          962                       # Packet count per connected master and slave (bytes)
system.tol2bus.pkt_count_system.cpu.dcache.mem_side::system.l2.cpu_side        74717                       # Packet count per connected master and slave (bytes)
system.tol2bus.pkt_count::total                 75679                       # Packet count per connected master and slave (bytes)
system.tol2bus.pkt_size_system.cpu.icache.mem_side::system.l2.cpu_side        38464                       # Cumulative packet size per connected master and slave (bytes)
system.tol2bus.pkt_size_system.cpu.dcache.mem_side::system.l2.cpu_side      2827968                       # Cumulative packet size per connected master and slave (bytes)
system.tol2bus.pkt_size::total                2866432                       # Cumulative packet size per connected master and slave (bytes)
system.tol2bus.snoops                             975                       # Total snoops (count)
system.tol2bus.snoopTraffic                       960                       # Total snoop traffic (bytes)
system.tol2bus.snoop_fanout::samples            26583                       # Request fanout histogram
system.tol2bus.snoop_fanout::mean            0.001542                       # Request fanout histogram
system.tol2bus.snoop_fanout::stdev           0.039243                       # Request fanout histogram
system.tol2bus.snoop_fanout::underflows             0      0.00%      0.00% # Request fanout histogram
system.tol2bus.snoop_fanout::0                  26542     99.85%     99.85% # Request fanout histogram
system.tol2bus.snoop_fanout::1                     41      0.15%    100.00% # Request fanout histogram
system.tol2bus.snoop_fanout::2                      0      0.00%    100.00% # Request fanout histogram
system.tol2bus.snoop_fanout::3                      0      0.00%    100.00% # Request fanout histogram
system.tol2bus.snoop_fanout::4                      0      0.00%    100.00% # Request fanout histogram
system.tol2bus.snoop_fanout::overflows              0      0.00%    100.00% # Request fanout histogram
system.tol2bus.snoop_fanout::min_value              0                       # Request fanout histogram
system.tol2bus.snoop_fanout::max_value              1                       # Request fanout histogram
system.tol2bus.snoop_fanout::total              26583                       # Request fanout histogram
system.tol2bus.reqLayer0.occupancy           44211500                       # Layer occupancy (ticks)
system.tol2bus.reqLayer0.utilization              1.7                       # Layer utilization (%)
system.tol2bus.respLayer1.occupancy          37861500                       # Layer occupancy (ticks)
system.tol2bus.respLayer1.utilization             1.5                       # Layer utilization (%)
system.tol2bus.respLayer0.occupancy            539997                       # Layer occupancy (ticks)
system.tol2bus.respLayer0.utilization             0.0                       # Layer utilization (%)
system.voltage_domain.voltage                       1                       # Voltage in Volts
system.clk_domain.clock                          1000                       # Clock period in ticks
system.l2.pwrStateResidencyTicks::UNDEFINED 120508019796000                       # Cumulative time (in ticks) in various power states
system.l2.demand_hits::.switch_cpus.inst          235                       # number of demand (read+write) hits
system.l2.demand_hits::.switch_cpus.data        23360                       # number of demand (read+write) hits
system.l2.demand_hits::total                    23595                       # number of demand (read+write) hits
system.l2.overall_hits::.switch_cpus.inst          235                       # number of overall hits
system.l2.overall_hits::.switch_cpus.data        23360                       # number of overall hits
system.l2.overall_hits::total                   23595                       # number of overall hits
system.l2.demand_misses::.cpu.inst                  2                       # number of demand (read+write) misses
system.l2.demand_misses::.cpu.data                  6                       # number of demand (read+write) misses
system.l2.demand_misses::.switch_cpus.inst          124                       # number of demand (read+write) misses
system.l2.demand_misses::.switch_cpus.data         1881                       # number of demand (read+write) misses
system.l2.demand_misses::total                   2013                       # number of demand (read+write) misses
system.l2.overall_misses::.cpu.inst                 2                       # number of overall misses
system.l2.overall_misses::.cpu.data                 6                       # number of overall misses
system.l2.overall_misses::.switch_cpus.inst          124                       # number of overall misses
system.l2.overall_misses::.switch_cpus.data         1881                       # number of overall misses
system.l2.overall_misses::total                  2013                       # number of overall misses
system.l2.demand_miss_latency::.switch_cpus.inst     10798500                       # number of demand (read+write) miss cycles
system.l2.demand_miss_latency::.switch_cpus.data    150467500                       # number of demand (read+write) miss cycles
system.l2.demand_miss_latency::total        161266000                       # number of demand (read+write) miss cycles
system.l2.overall_miss_latency::.switch_cpus.inst     10798500                       # number of overall miss cycles
system.l2.overall_miss_latency::.switch_cpus.data    150467500                       # number of overall miss cycles
system.l2.overall_miss_latency::total       161266000                       # number of overall miss cycles
system.l2.demand_accesses::.cpu.inst                2                       # number of demand (read+write) accesses
system.l2.demand_accesses::.cpu.data                6                       # number of demand (read+write) accesses
system.l2.demand_accesses::.switch_cpus.inst          359                       # number of demand (read+write) accesses
system.l2.demand_accesses::.switch_cpus.data        25241                       # number of demand (read+write) accesses
system.l2.demand_accesses::total                25608                       # number of demand (read+write) accesses
system.l2.overall_accesses::.cpu.inst               2                       # number of overall (read+write) accesses
system.l2.overall_accesses::.cpu.data               6                       # number of overall (read+write) accesses
system.l2.overall_accesses::.switch_cpus.inst          359                       # number of overall (read+write) accesses
system.l2.overall_accesses::.switch_cpus.data        25241                       # number of overall (read+write) accesses
system.l2.overall_accesses::total               25608                       # number of overall (read+write) accesses
system.l2.demand_miss_rate::.cpu.inst               1                       # miss rate for demand accesses
system.l2.demand_miss_rate::.cpu.data               1                       # miss rate for demand accesses
system.l2.demand_miss_rate::.switch_cpus.inst     0.345404                       # miss rate for demand accesses
system.l2.demand_miss_rate::.switch_cpus.data     0.074522                       # miss rate for demand accesses
system.l2.demand_miss_rate::total            0.078608                       # miss rate for demand accesses
system.l2.overall_miss_rate::.cpu.inst              1                       # miss rate for overall accesses
system.l2.overall_miss_rate::.cpu.data              1                       # miss rate for overall accesses
system.l2.overall_miss_rate::.switch_cpus.inst     0.345404                       # miss rate for overall accesses
system.l2.overall_miss_rate::.switch_cpus.data     0.074522                       # miss rate for overall accesses
system.l2.overall_miss_rate::total           0.078608                       # miss rate for overall accesses
system.l2.demand_avg_miss_latency::.switch_cpus.inst 87084.677419                       # average overall miss latency
system.l2.demand_avg_miss_latency::.switch_cpus.data 79993.354599                       # average overall miss latency
system.l2.demand_avg_miss_latency::total 80112.270243                       # average overall miss latency
system.l2.overall_avg_miss_latency::.switch_cpus.inst 87084.677419                       # average overall miss latency
system.l2.overall_avg_miss_latency::.switch_cpus.data 79993.354599                       # average overall miss latency
system.l2.overall_avg_miss_latency::total 80112.270243                       # average overall miss latency
system.l2.blocked_cycles::no_mshrs                  0                       # number of cycles access was blocked
system.l2.blocked_cycles::no_targets                0                       # number of cycles access was blocked
system.l2.blocked::no_mshrs                         0                       # number of cycles access was blocked
system.l2.blocked::no_targets                       0                       # number of cycles access was blocked
system.l2.avg_blocked_cycles::no_mshrs            nan                       # average number of cycles each access was blocked
system.l2.avg_blocked_cycles::no_targets          nan                       # average number of cycles each access was blocked
system.l2.writebacks::.writebacks                  15                       # number of writebacks
system.l2.writebacks::total                        15                       # number of writebacks
system.l2.demand_mshr_misses::.switch_cpus.inst          124                       # number of demand (read+write) MSHR misses
system.l2.demand_mshr_misses::.switch_cpus.data         1881                       # number of demand (read+write) MSHR misses
system.l2.demand_mshr_misses::total              2005                       # number of demand (read+write) MSHR misses
system.l2.overall_mshr_misses::.l2.prefetcher          531                       # number of overall MSHR misses
system.l2.overall_mshr_misses::.switch_cpus.inst          124                       # number of overall MSHR misses
system.l2.overall_mshr_misses::.switch_cpus.data         1881                       # number of overall MSHR misses
system.l2.overall_mshr_misses::total             2536                       # number of overall MSHR misses
system.l2.demand_mshr_miss_latency::.switch_cpus.inst      9558500                       # number of demand (read+write) MSHR miss cycles
system.l2.demand_mshr_miss_latency::.switch_cpus.data    131657500                       # number of demand (read+write) MSHR miss cycles
system.l2.demand_mshr_miss_latency::total    141216000                       # number of demand (read+write) MSHR miss cycles
system.l2.overall_mshr_miss_latency::.l2.prefetcher     36481607                       # number of overall MSHR miss cycles
system.l2.overall_mshr_miss_latency::.switch_cpus.inst      9558500                       # number of overall MSHR miss cycles
system.l2.overall_mshr_miss_latency::.switch_cpus.data    131657500                       # number of overall MSHR miss cycles
system.l2.overall_mshr_miss_latency::total    177697607                       # number of overall MSHR miss cycles
system.l2.demand_mshr_miss_rate::.switch_cpus.inst     0.345404                       # mshr miss rate for demand accesses
system.l2.demand_mshr_miss_rate::.switch_cpus.data     0.074522                       # mshr miss rate for demand accesses
system.l2.demand_mshr_miss_rate::total       0.078296                       # mshr miss rate for demand accesses
system.l2.overall_mshr_miss_rate::.l2.prefetcher          inf                       # mshr miss rate for overall accesses
system.l2.overall_mshr_miss_rate::.switch_cpus.inst     0.345404                       # mshr miss rate for overall accesses
system.l2.overall_mshr_miss_rate::.switch_cpus.data     0.074522                       # mshr miss rate for overall accesses
system.l2.overall_mshr_miss_rate::total      0.099032                       # mshr miss rate for overall accesses
system.l2.demand_avg_mshr_miss_latency::.switch_cpus.inst 77084.677419                       # average overall mshr miss latency
system.l2.demand_avg_mshr_miss_latency::.switch_cpus.data 69993.354599                       # average overall mshr miss latency
system.l2.demand_avg_mshr_miss_latency::total 70431.920200                       # average overall mshr miss latency
system.l2.overall_avg_mshr_miss_latency::.l2.prefetcher 68703.591337                       # average overall mshr miss latency
system.l2.overall_avg_mshr_miss_latency::.switch_cpus.inst 77084.677419                       # average overall mshr miss latency
system.l2.overall_avg_mshr_miss_latency::.switch_cpus.data 69993.354599                       # average overall mshr miss latency
system.l2.overall_avg_mshr_miss_latency::total 70070.034306                       # average overall mshr miss latency
system.l2.replacements                             59                       # number of replacements
system.l2.WritebackDirty_hits::.writebacks        18940                       # number of WritebackDirty hits
system.l2.WritebackDirty_hits::total            18940                       # number of WritebackDirty hits
system.l2.WritebackDirty_accesses::.writebacks        18940                       # number of WritebackDirty accesses(hits+misses)
system.l2.WritebackDirty_accesses::total        18940                       # number of WritebackDirty accesses(hits+misses)
system.l2.WritebackClean_hits::.writebacks          240                       # number of WritebackClean hits
system.l2.WritebackClean_hits::total              240                       # number of WritebackClean hits
system.l2.WritebackClean_accesses::.writebacks          240                       # number of WritebackClean accesses(hits+misses)
system.l2.WritebackClean_accesses::total          240                       # number of WritebackClean accesses(hits+misses)
system.l2.CleanEvict_mshr_misses::.writebacks            4                       # number of CleanEvict MSHR misses
system.l2.CleanEvict_mshr_misses::total             4                       # number of CleanEvict MSHR misses
system.l2.CleanEvict_mshr_miss_rate::.writebacks          inf                       # mshr miss rate for CleanEvict accesses
system.l2.CleanEvict_mshr_miss_rate::total          inf                       # mshr miss rate for CleanEvict accesses
system.l2.HardPFReq_mshr_misses::.l2.prefetcher          531                       # number of HardPFReq MSHR misses
system.l2.HardPFReq_mshr_misses::total            531                       # number of HardPFReq MSHR misses
system.l2.HardPFReq_mshr_miss_latency::.l2.prefetcher     36481607                       # number of HardPFReq MSHR miss cycles
system.l2.HardPFReq_mshr_miss_latency::total     36481607                       # number of HardPFReq MSHR miss cycles
system.l2.HardPFReq_mshr_miss_rate::.l2.prefetcher          inf                       # mshr miss rate for HardPFReq accesses
system.l2.HardPFReq_mshr_miss_rate::total          inf                       # mshr miss rate for HardPFReq accesses
system.l2.HardPFReq_avg_mshr_miss_latency::.l2.prefetcher 68703.591337                       # average HardPFReq mshr miss latency
system.l2.HardPFReq_avg_mshr_miss_latency::total 68703.591337                       # average HardPFReq mshr miss latency
system.l2.ReadExReq_hits::.switch_cpus.data        17632                       # number of ReadExReq hits
system.l2.ReadExReq_hits::total                 17632                       # number of ReadExReq hits
system.l2.ReadExReq_misses::.cpu.data               1                       # number of ReadExReq misses
system.l2.ReadExReq_misses::.switch_cpus.data         1542                       # number of ReadExReq misses
system.l2.ReadExReq_misses::total                1543                       # number of ReadExReq misses
system.l2.ReadExReq_miss_latency::.switch_cpus.data    120493000                       # number of ReadExReq miss cycles
system.l2.ReadExReq_miss_latency::total     120493000                       # number of ReadExReq miss cycles
system.l2.ReadExReq_accesses::.cpu.data             1                       # number of ReadExReq accesses(hits+misses)
system.l2.ReadExReq_accesses::.switch_cpus.data        19174                       # number of ReadExReq accesses(hits+misses)
system.l2.ReadExReq_accesses::total             19175                       # number of ReadExReq accesses(hits+misses)
system.l2.ReadExReq_miss_rate::.cpu.data            1                       # miss rate for ReadExReq accesses
system.l2.ReadExReq_miss_rate::.switch_cpus.data     0.080421                       # miss rate for ReadExReq accesses
system.l2.ReadExReq_miss_rate::total         0.080469                       # miss rate for ReadExReq accesses
system.l2.ReadExReq_avg_miss_latency::.switch_cpus.data 78140.726329                       # average ReadExReq miss latency
system.l2.ReadExReq_avg_miss_latency::total 78090.084251                       # average ReadExReq miss latency
[...]
system.cpu.itb_walker_cache.blocked_cycles::no_mshrs            0                       # number of cycles access was blocked
system.cpu.itb_walker_cache.blocked_cycles::no_targets            0                       # number of cycles access was blocked
system.cpu.itb_walker_cache.blocked::no_mshrs            0                       # number of cycles access was blocked
system.cpu.itb_walker_cache.blocked::no_targets            0                       # number of cycles access was blocked
system.cpu.itb_walker_cache.avg_blocked_cycles::no_mshrs          nan                       # average number of cycles each access was blocked
system.cpu.itb_walker_cache.avg_blocked_cycles::no_targets          nan                       # average number of cycles each access was blocked
system.cpu.itb_walker_cache.replacements            0                       # number of replacements
system.cpu.itb_walker_cache.tags.pwrStateResidencyTicks::UNDEFINED 120515445096500                       # Cumulative time (in ticks) in various power states
system.cpu.itb_walker_cache.tags.tagsinuse            0                       # Cycle average of tags in use
system.cpu.itb_walker_cache.tags.total_refs            0                       # Total number of references to valid blocks.
system.cpu.itb_walker_cache.tags.sampled_refs            0                       # Sample count of references to valid blocks.
system.cpu.itb_walker_cache.tags.avg_refs          nan                       # Average number of references to valid blocks.
system.cpu.itb_walker_cache.tags.warmup_cycle            0                       # Cycle when the warmup percentage was hit.
system.cpu.itb_walker_cache.tags.tag_accesses            0                       # Number of tag accesses
system.cpu.itb_walker_cache.tags.data_accesses            0                       # Number of data accesses
system.cpu.itb.walker.pwrStateResidencyTicks::UNDEFINED 120515445096500                       # Cumulative time (in ticks) in various power states
system.cpu.dtb_walker_cache.pwrStateResidencyTicks::UNDEFINED 120515445096500                       # Cumulative time (in ticks) in various power states
system.cpu.dtb_walker_cache.blocked_cycles::no_mshrs            0                       # number of cycles access was blocked
system.cpu.dtb_walker_cache.blocked_cycles::no_targets            0                       # number of cycles access was blocked
system.cpu.dtb_walker_cache.blocked::no_mshrs            0                       # number of cycles access was blocked
system.cpu.dtb_walker_cache.blocked::no_targets            0                       # number of cycles access was blocked
system.cpu.dtb_walker_cache.avg_blocked_cycles::no_mshrs          nan                       # average number of cycles each access was blocked
system.cpu.dtb_walker_cache.avg_blocked_cycles::no_targets          nan                       # average number of cycles each access was blocked
system.cpu.dtb_walker_cache.replacements            0                       # number of replacements
system.cpu.dtb_walker_cache.tags.pwrStateResidencyTicks::UNDEFINED 120515445096500                       # Cumulative time (in ticks) in various power states
system.cpu.dtb_walker_cache.tags.tagsinuse            0                       # Cycle average of tags in use
system.cpu.dtb_walker_cache.tags.total_refs            0                       # Total number of references to valid blocks.
system.cpu.dtb_walker_cache.tags.sampled_refs            0                       # Sample count of references to valid blocks.
system.cpu.dtb_walker_cache.tags.avg_refs          nan                       # Average number of references to valid blocks.
system.cpu.dtb_walker_cache.tags.warmup_cycle            0                       # Cycle when the warmup percentage was hit.
system.cpu.dtb_walker_cache.tags.tag_accesses            0                       # Number of tag accesses
system.cpu.dtb_walker_cache.tags.data_accesses            0                       # Number of data accesses
system.cpu.dcache.pwrStateResidencyTicks::UNDEFINED 120515445096500                       # Cumulative time (in ticks) in various power states
system.cpu.dcache.demand_hits::.cpu.data            2                       # number of demand (read+write) hits
system.cpu.dcache.demand_hits::.switch_cpus.data     18674588                       # number of demand (read+write) hits
system.cpu.dcache.demand_hits::total         18674590                       # number of demand (read+write) hits
system.cpu.dcache.overall_hits::.cpu.data            2                       # number of overall hits
system.cpu.dcache.overall_hits::.switch_cpus.data     18674588                       # number of overall hits
system.cpu.dcache.overall_hits::total        18674590                       # number of overall hits
system.cpu.dcache.demand_misses::.cpu.data            6                       # number of demand (read+write) misses
system.cpu.dcache.demand_misses::.switch_cpus.data       108693                       # number of demand (read+write) misses
system.cpu.dcache.demand_misses::total         108699                       # number of demand (read+write) misses
system.cpu.dcache.overall_misses::.cpu.data            6                       # number of overall misses
system.cpu.dcache.overall_misses::.switch_cpus.data       108693                       # number of overall misses
system.cpu.dcache.overall_misses::total        108699                       # number of overall misses
system.cpu.dcache.demand_miss_latency::.switch_cpus.data   1606824490                       # number of demand (read+write) miss cycles
system.cpu.dcache.demand_miss_latency::total   1606824490                       # number of demand (read+write) miss cycles
system.cpu.dcache.overall_miss_latency::.switch_cpus.data   1606824490                       # number of overall miss cycles
system.cpu.dcache.overall_miss_latency::total   1606824490                       # number of overall miss cycles
system.cpu.dcache.demand_accesses::.cpu.data            8                       # number of demand (read+write) accesses
system.cpu.dcache.demand_accesses::.switch_cpus.data     18783281                       # number of demand (read+write) accesses
system.cpu.dcache.demand_accesses::total     18783289                       # number of demand (read+write) accesses
system.cpu.dcache.overall_accesses::.cpu.data            8                       # number of overall (read+write) accesses
system.cpu.dcache.overall_accesses::.switch_cpus.data     18783281                       # number of overall (read+write) accesses
system.cpu.dcache.overall_accesses::total     18783289                       # number of overall (read+write) accesses
system.cpu.dcache.demand_miss_rate::.cpu.data     0.750000                       # miss rate for demand accesses
system.cpu.dcache.demand_miss_rate::.switch_cpus.data     0.005787                       # miss rate for demand accesses
system.cpu.dcache.demand_miss_rate::total     0.005787                       # miss rate for demand accesses
system.cpu.dcache.overall_miss_rate::.cpu.data     0.750000                       # miss rate for overall accesses
system.cpu.dcache.overall_miss_rate::.switch_cpus.data     0.005787                       # miss rate for overall accesses
system.cpu.dcache.overall_miss_rate::total     0.005787                       # miss rate for overall accesses
system.cpu.dcache.demand_avg_miss_latency::.switch_cpus.data 14783.146017                       # average overall miss latency
system.cpu.dcache.demand_avg_miss_latency::total 14782.330012                       # average overall miss latency
system.cpu.dcache.overall_avg_miss_latency::.switch_cpus.data 14783.146017                       # average overall miss latency
system.cpu.dcache.overall_avg_miss_latency::total 14782.330012                       # average overall miss latency
system.cpu.dcache.blocked_cycles::no_mshrs         6203                       # number of cycles access was blocked
system.cpu.dcache.blocked_cycles::no_targets            0                       # number of cycles access was blocked
system.cpu.dcache.blocked::no_mshrs               644                       # number of cycles access was blocked
system.cpu.dcache.blocked::no_targets               0                       # number of cycles access was blocked
system.cpu.dcache.avg_blocked_cycles::no_mshrs     9.631988                       # average number of cycles each access was blocked
system.cpu.dcache.avg_blocked_cycles::no_targets          nan                       # average number of cycles each access was blocked
system.cpu.dcache.writebacks::.writebacks        81666                       # number of writebacks
system.cpu.dcache.writebacks::total             81666                       # number of writebacks
system.cpu.dcache.demand_mshr_hits::.switch_cpus.data         3687                       # number of demand (read+write) MSHR hits
system.cpu.dcache.demand_mshr_hits::total         3687                       # number of demand (read+write) MSHR hits
system.cpu.dcache.overall_mshr_hits::.switch_cpus.data         3687                       # number of overall MSHR hits
system.cpu.dcache.overall_mshr_hits::total         3687                       # number of overall MSHR hits
system.cpu.dcache.demand_mshr_misses::.switch_cpus.data       105006                       # number of demand (read+write) MSHR misses
system.cpu.dcache.demand_mshr_misses::total       105006                       # number of demand (read+write) MSHR misses
system.cpu.dcache.overall_mshr_misses::.switch_cpus.data       105006                       # number of overall MSHR misses
system.cpu.dcache.overall_mshr_misses::total       105006                       # number of overall MSHR misses
system.cpu.dcache.demand_mshr_miss_latency::.switch_cpus.data   1456410990                       # number of demand (read+write) MSHR miss cycles
system.cpu.dcache.demand_mshr_miss_latency::total   1456410990                       # number of demand (read+write) MSHR miss cycles
system.cpu.dcache.overall_mshr_miss_latency::.switch_cpus.data   1456410990                       # number of overall MSHR miss cycles
system.cpu.dcache.overall_mshr_miss_latency::total   1456410990                       # number of overall MSHR miss cycles
system.cpu.dcache.demand_mshr_miss_rate::.switch_cpus.data     0.005590                       # mshr miss rate for demand accesses
system.cpu.dcache.demand_mshr_miss_rate::total     0.005590                       # mshr miss rate for demand accesses
system.cpu.dcache.overall_mshr_miss_rate::.switch_cpus.data     0.005590                       # mshr miss rate for overall accesses
system.cpu.dcache.overall_mshr_miss_rate::total     0.005590                       # mshr miss rate for overall accesses
system.cpu.dcache.demand_avg_mshr_miss_latency::.switch_cpus.data 13869.788298                       # average overall mshr miss latency
system.cpu.dcache.demand_avg_mshr_miss_latency::total 13869.788298                       # average overall mshr miss latency
system.cpu.dcache.overall_avg_mshr_miss_latency::.switch_cpus.data 13869.788298                       # average overall mshr miss latency
system.cpu.dcache.overall_avg_mshr_miss_latency::total 13869.788298                       # average overall mshr miss latency
system.cpu.dcache.replacements                 103988                       # number of replacements
system.cpu.dcache.ReadReq_hits::.cpu.data            1                       # number of ReadReq hits
system.cpu.dcache.ReadReq_hits::.switch_cpus.data     13160029                       # number of ReadReq hits
system.cpu.dcache.ReadReq_hits::total        13160030                       # number of ReadReq hits
system.cpu.dcache.ReadReq_misses::.cpu.data            5                       # number of ReadReq misses
system.cpu.dcache.ReadReq_misses::.switch_cpus.data        28348                       # number of ReadReq misses
system.cpu.dcache.ReadReq_misses::total         28353                       # number of ReadReq misses
system.cpu.dcache.ReadReq_miss_latency::.switch_cpus.data    410123500                       # number of ReadReq miss cycles
system.cpu.dcache.ReadReq_miss_latency::total    410123500                       # number of ReadReq miss cycles
system.cpu.dcache.ReadReq_accesses::.cpu.data            6                       # number of ReadReq accesses(hits+misses)
system.cpu.dcache.ReadReq_accesses::.switch_cpus.data     13188377                       # number of ReadReq accesses(hits+misses)
system.cpu.dcache.ReadReq_accesses::total     13188383                       # number of ReadReq accesses(hits+misses)
system.cpu.dcache.ReadReq_miss_rate::.cpu.data     0.833333                       # miss rate for ReadReq accesses
system.cpu.dcache.ReadReq_miss_rate::.switch_cpus.data     0.002149                       # miss rate for ReadReq accesses
system.cpu.dcache.ReadReq_miss_rate::total     0.002150                       # miss rate for ReadReq accesses
system.cpu.dcache.ReadReq_avg_miss_latency::.switch_cpus.data 14467.458022                       # average ReadReq miss latency
system.cpu.dcache.ReadReq_avg_miss_latency::total 14464.906712                       # average ReadReq miss latency
system.cpu.dcache.ReadReq_mshr_hits::.switch_cpus.data         3687                       # number of ReadReq MSHR hits
system.cpu.dcache.ReadReq_mshr_hits::total         3687                       # number of ReadReq MSHR hits
system.cpu.dcache.ReadReq_mshr_misses::.switch_cpus.data        24661                       # number of ReadReq MSHR misses
system.cpu.dcache.ReadReq_mshr_misses::total        24661                       # number of ReadReq MSHR misses
system.cpu.dcache.ReadReq_mshr_miss_latency::.switch_cpus.data    340055000                       # number of ReadReq MSHR miss cycles
system.cpu.dcache.ReadReq_mshr_miss_latency::total    340055000                       # number of ReadReq MSHR miss cycles
system.cpu.dcache.ReadReq_mshr_miss_rate::.switch_cpus.data     0.001870                       # mshr miss rate for ReadReq accesses
system.cpu.dcache.ReadReq_mshr_miss_rate::total     0.001870                       # mshr miss rate for ReadReq accesses
system.cpu.dcache.ReadReq_avg_mshr_miss_latency::.switch_cpus.data 13789.181298                       # average ReadReq mshr miss latency
system.cpu.dcache.ReadReq_avg_mshr_miss_latency::total 13789.181298                       # average ReadReq mshr miss latency
system.cpu.dcache.WriteReq_hits::.cpu.data            1                       # number of WriteReq hits
system.cpu.dcache.WriteReq_hits::.switch_cpus.data      5514559                       # number of WriteReq hits
system.cpu.dcache.WriteReq_hits::total        5514560                       # number of WriteReq hits
system.cpu.dcache.WriteReq_misses::.cpu.data            1                       # number of WriteReq misses
system.cpu.dcache.WriteReq_misses::.switch_cpus.data        80345                       # number of WriteReq misses
system.cpu.dcache.WriteReq_misses::total        80346                       # number of WriteReq misses
system.cpu.dcache.WriteReq_miss_latency::.switch_cpus.data   1196700990                       # number of WriteReq miss cycles
system.cpu.dcache.WriteReq_miss_latency::total   1196700990                       # number of WriteReq miss cycles
system.cpu.dcache.WriteReq_accesses::.cpu.data            2                       # number of WriteReq accesses(hits+misses)
system.cpu.dcache.WriteReq_accesses::.switch_cpus.data      5594904                       # number of WriteReq accesses(hits+misses)
system.cpu.dcache.WriteReq_accesses::total      5594906                       # number of WriteReq accesses(hits+misses)
system.cpu.dcache.WriteReq_miss_rate::.cpu.data     0.500000                       # miss rate for WriteReq accesses
system.cpu.dcache.WriteReq_miss_rate::.switch_cpus.data     0.014360                       # miss rate for WriteReq accesses
system.cpu.dcache.WriteReq_miss_rate::total     0.014361                       # miss rate for WriteReq accesses
system.cpu.dcache.WriteReq_avg_miss_latency::.switch_cpus.data 14894.529716                       # average WriteReq miss latency
system.cpu.dcache.WriteReq_avg_miss_latency::total 14894.344336                       # average WriteReq miss latency
system.cpu.dcache.WriteReq_mshr_misses::.switch_cpus.data        80345                       # number of WriteReq MSHR misses
system.cpu.dcache.WriteReq_mshr_misses::total        80345                       # number of WriteReq MSHR misses
system.cpu.dcache.WriteReq_mshr_miss_latency::.switch_cpus.data   1116355990                       # number of WriteReq MSHR miss cycles
system.cpu.dcache.WriteReq_mshr_miss_latency::total   1116355990                       # number of WriteReq MSHR miss cycles
system.cpu.dcache.WriteReq_mshr_miss_rate::.switch_cpus.data     0.014360                       # mshr miss rate for WriteReq accesses
system.cpu.dcache.WriteReq_mshr_miss_rate::total     0.014360                       # mshr miss rate for WriteReq accesses
system.cpu.dcache.WriteReq_avg_mshr_miss_latency::.switch_cpus.data 13894.529716                       # average WriteReq mshr miss latency
system.cpu.dcache.WriteReq_avg_mshr_miss_latency::total 13894.529716                       # average WriteReq mshr miss latency
system.cpu.dcache.tags.pwrStateResidencyTicks::UNDEFINED 120515445096500                       # Cumulative time (in ticks) in various power states
system.cpu.dcache.tags.tagsinuse             0.084450                       # Cycle average of tags in use
system.cpu.dcache.tags.total_refs            18779602                       # Total number of references to valid blocks.
system.cpu.dcache.tags.sampled_refs            105012                       # Sample count of references to valid blocks.
system.cpu.dcache.tags.avg_refs            178.832914                       # Average number of references to valid blocks.
system.cpu.dcache.tags.warmup_cycle      120505440077000                       # Cycle when the warmup percentage was hit.
system.cpu.dcache.tags.occ_blocks::.cpu.data     0.000271                       # Average occupied blocks per requestor
system.cpu.dcache.tags.occ_blocks::.switch_cpus.data     0.084179                       # Average occupied blocks per requestor
system.cpu.dcache.tags.occ_percent::.cpu.data     0.000000                       # Average percentage of cache occupancy
system.cpu.dcache.tags.occ_percent::.switch_cpus.data     0.000082                       # Average percentage of cache occupancy
system.cpu.dcache.tags.occ_percent::total     0.000082                       # Average percentage of cache occupancy
system.cpu.dcache.tags.occ_task_id_blocks::1024         1024                       # Occupied blocks per task id
system.cpu.dcache.tags.age_task_id_blocks_1024::0            8                       # Occupied blocks per task id
system.cpu.dcache.tags.age_task_id_blocks_1024::1          930                       # Occupied blocks per task id
system.cpu.dcache.tags.age_task_id_blocks_1024::2           51                       # Occupied blocks per task id
system.cpu.dcache.tags.age_task_id_blocks_1024::3           17                       # Occupied blocks per task id
system.cpu.dcache.tags.age_task_id_blocks_1024::4           18                       # Occupied blocks per task id
system.cpu.dcache.tags.occ_task_id_percent::1024            1                       # Percentage of cache occupancy per task id
system.cpu.dcache.tags.tag_accesses          37671590                       # Number of tag accesses
system.cpu.dcache.tags.data_accesses         37671590                       # Number of data accesses

---------- End Simulation Statistics   ----------
