
---------- Begin Simulation Statistics ----------
final_tick                               926048819268000                       # Number of ticks from beginning of simulation (restored from checkpoints and never reset)
host_inst_rate                                  29583                       # Simulator instruction rate (inst/s)
host_mem_usage                                 829692                       # Number of bytes of host memory used
host_op_rate                                    49773                       # Simulator op (including micro ops) rate (op/s)
host_seconds                                   338.03                       # Real time elapsed on the host
host_tick_rate                               27263456                       # Simulator tick rate (ticks/s)
sim_freq                                 1000000000000                       # Frequency of simulated ticks
sim_insts                                    10000011                       # Number of instructions simulated
sim_ops                                      16825017                       # Number of ops (including micro ops) simulated
sim_seconds                                  0.009216                       # Number of seconds simulated
sim_ticks                                  9215985500                       # Number of ticks simulated
system.cpu.Branches                                 3                       # Number of branches fetched
system.cpu.committedInsts                           9                       # Number of instructions committed
system.cpu.committedOps                            18                       # Number of ops (including micro ops) committed
system.cpu.dtb.rdAccesses                           2                       # TLB accesses on read requests
system.cpu.dtb.rdMisses                             0                       # TLB misses on read requests
system.cpu.dtb.wrAccesses                           0                       # TLB accesses on write requests
system.cpu.dtb.wrMisses                             0                       # TLB misses on write requests
system.cpu.idle_fraction                            0                       # Percentage of idle cycles
system.cpu.itb.rdAccesses                           0                       # TLB accesses on read requests
system.cpu.itb.rdMisses                             0                       # TLB misses on read requests
system.cpu.itb.wrAccesses                          11                       # TLB accesses on write requests
system.cpu.itb.wrMisses                             0                       # TLB misses on write requests
system.cpu.not_idle_fraction                        1                       # Percentage of non-idle cycles
system.cpu.numCycles                               20                       # number of cpu cycles simulated
system.cpu.numWorkItemsCompleted                    0                       # number of work items this cpu completed
system.cpu.numWorkItemsStarted                      0                       # number of work items this cpu started
system.cpu.num_busy_cycles                         20                       # Number of busy cycles
system.cpu.num_cc_register_reads                   15                       # number of times the CC registers were read
system.cpu.num_cc_register_writes                   8                       # number of times the CC registers were written
system.cpu.num_conditional_control_insts            3                       # number of instructions that are conditional controls
system.cpu.num_fp_alu_accesses                      0                       # Number of float alu accesses
system.cpu.num_fp_insts                             0                       # number of float instructions
system.cpu.num_fp_register_reads                    0                       # number of times the floating registers were read
system.cpu.num_fp_register_writes                   0                       # number of times the floating registers were written
system.cpu.num_func_calls                           0                       # number of times a function call or return occured
system.cpu.num_idle_cycles                          0                       # Number of idle cycles
system.cpu.num_int_alu_accesses                    18                       # Number of integer alu accesses
system.cpu.num_int_insts                           18                       # number of integer instructions
system.cpu.num_int_register_reads                  29                       # number of times the integer registers were read
system.cpu.num_int_register_writes                 15                       # number of times the integer registers were written
system.cpu.num_load_insts                           2                       # Number of load instructions
system.cpu.num_mem_refs                             2                       # number of memory refs
system.cpu.num_store_insts                          0                       # Number of store instructions
system.cpu.num_vec_alu_accesses                     0                       # Number of vector alu accesses
system.cpu.num_vec_insts                            0                       # number of vector instructions
system.cpu.num_vec_register_reads                   0                       # number of times the vector registers were read
system.cpu.num_vec_register_writes                  0                       # number of times the vector registers were written
system.cpu.op_class::No_OpClass                     0      0.00%      0.00% # Class of executed instruction
system.cpu.op_class::IntAlu                        16     88.89%     88.89% # Class of executed instruction
system.cpu.op_class::IntMult                        0      0.00%     88.89% # Class of executed instruction
system.cpu.op_class::IntDiv                         0      0.00%     88.89% # Class of executed instruction
system.cpu.op_class::FloatAdd                       0      0.00%     88.89% # Class of executed instruction
system.cpu.op_class::FloatCmp                       0      0.00%     88.89% # Class of executed instruction
system.cpu.op_class::FloatCvt                       0      0.00%     88.89% # Class of executed instruction
system.cpu.op_class::FloatMult                      0      0.00%     88.89% # Class of executed instruction
system.cpu.op_class::FloatMultAcc                   0      0.00%     88.89% # Class of executed instruction
system.cpu.op_class::FloatDiv                       0      0.00%     88.89% # Class of executed instruction
system.cpu.op_class::FloatMisc                      0      0.00%     88.89% # Class of executed instruction
system.cpu.op_class::FloatSqrt                      0      0.00%     88.89% # Class of executed instruction
system.cpu.op_class::SimdAdd                        0      0.00%     88.89% # Class of executed instruction
system.cpu.op_class::SimdAddAcc                     0      0.00%     88.89% # Class of executed instruction
system.cpu.op_class::SimdAlu                        0      0.00%     88.89% # Class of executed instruction
system.cpu.op_class::SimdCmp                        0      0.00%     88.89% # Class of executed instruction
system.cpu.op_class::SimdCvt                        0      0.00%     88.89% # Class of executed instruction
system.cpu.op_class::SimdMisc                       0      0.00%     88.89% # Class of executed instruction
system.cpu.op_class::SimdMult                       0      0.00%     88.89% # Class of executed instruction
system.cpu.op_class::SimdMultAcc                    0      0.00%     88.89% # Class of executed instruction
system.cpu.op_class::SimdShift                      0      0.00%     88.89% # Class of executed instruction
system.cpu.op_class::SimdShiftAcc                   0      0.00%     88.89% # Class of executed instruction
system.cpu.op_class::SimdDiv                        0      0.00%     88.89% # Class of executed instruction
system.cpu.op_class::SimdSqrt                       0      0.00%     88.89% # Class of executed instruction
system.cpu.op_class::SimdFloatAdd                   0      0.00%     88.89% # Class of executed instruction
system.cpu.op_class::SimdFloatAlu                   0      0.00%     88.89% # Class of executed instruction
system.cpu.op_class::SimdFloatCmp                   0      0.00%     88.89% # Class of executed instruction
system.cpu.op_class::SimdFloatCvt                   0      0.00%     88.89% # Class of executed instruction
system.cpu.op_class::SimdFloatDiv                   0      0.00%     88.89% # Class of executed instruction
system.cpu.op_class::SimdFloatMisc                  0      0.00%     88.89% # Class of executed instruction
system.cpu.op_class::SimdFloatMult                  0      0.00%     88.89% # Class of executed instruction
system.cpu.op_class::SimdFloatMultAcc               0      0.00%     88.89% # Class of executed instruction
system.cpu.op_class::SimdFloatSqrt                  0      0.00%     88.89% # Class of executed instruction
system.cpu.op_class::SimdReduceAdd                  0      0.00%     88.89% # Class of executed instruction
system.cpu.op_class::SimdReduceAlu                  0      0.00%     88.89% # Class of executed instruction
system.cpu.op_class::SimdReduceCmp                  0      0.00%     88.89% # Class of executed instruction
system.cpu.op_class::SimdFloatReduceAdd             0      0.00%     88.89% # Class of executed instruction
system.cpu.op_class::SimdFloatReduceCmp             0      0.00%     88.89% # Class of executed instruction
system.cpu.op_class::SimdAes                        0      0.00%     88.89% # Class of executed instruction
system.cpu.op_class::SimdAesMix                     0      0.00%     88.89% # Class of executed instruction
system.cpu.op_class::SimdSha1Hash                   0      0.00%     88.89% # Class of executed instruction
system.cpu.op_class::SimdSha1Hash2                  0      0.00%     88.89% # Class of executed instruction
system.cpu.op_class::SimdSha256Hash                 0      0.00%     88.89% # Class of executed instruction
system.cpu.op_class::SimdSha256Hash2                0      0.00%     88.89% # Class of executed instruction
system.cpu.op_class::SimdShaSigma2                  0      0.00%     88.89% # Class of executed instruction
system.cpu.op_class::SimdShaSigma3                  0      0.00%     88.89% # Class of executed instruction
system.cpu.op_class::SimdPredAlu                    0      0.00%     88.89% # Class of executed instruction
system.cpu.op_class::MemRead                        2     11.11%    100.00% # Class of executed instruction
system.cpu.op_class::MemWrite                       0      0.00%    100.00% # Class of executed instruction
system.cpu.op_class::FloatMemRead                   0      0.00%    100.00% # Class of executed instruction
system.cpu.op_class::FloatMemWrite                  0      0.00%    100.00% # Class of executed instruction
system.cpu.op_class::IprAccess                      0      0.00%    100.00% # Class of executed instruction
system.cpu.op_class::InstPrefetch                   0      0.00%    100.00% # Class of executed instruction
system.cpu.op_class::total                         18                       # Class of executed instruction
system.cpu.workload.numSyscalls                     0                       # Number of system calls
system.membus.snoop_filter.hit_multi_requests            0                       # Number of requests hitting in the snoop filter with multiple (>1) holders of the requested data.
system.membus.snoop_filter.hit_multi_snoops            0                       # Number of snoops hitting in the snoop filter with multiple (>1) holders of the requested data.
system.membus.snoop_filter.hit_single_requests       108810                       # Number of requests hitting in the snoop filter with a single holder of the requested data.
system.membus.snoop_filter.hit_single_snoops            0                       # Number of snoops hitting in the snoop filter with a single holder of the requested data.
system.membus.snoop_filter.tot_requests        221789                       # Total number of requests made to the snoop filter.
system.membus.snoop_filter.tot_snoops               0                       # Total number of snoops made to the snoop filter.
system.switch_cpus.branchPred.BTBCorrect            0                       # Number of correct BTB predictions (this stat may not work properly.
system.switch_cpus.branchPred.BTBHitPct      0.000000                       # BTB Hit Percentage
system.switch_cpus.branchPred.BTBHits               0                       # Number of BTB hits
system.switch_cpus.branchPred.BTBLookups      4901927                       # Number of BTB lookups
system.switch_cpus.branchPred.RASInCorrect            0                       # Number of incorrect RAS predictions.
system.switch_cpus.branchPred.condIncorrect       566347                       # Number of conditional branches incorrect
system.switch_cpus.branchPred.condPredicted      5966931                       # Number of conditional branches predicted
system.switch_cpus.branchPred.indirectHits      2778885                       # Number of indirect target hits.
system.switch_cpus.branchPred.indirectLookups      4901927                       # Number of indirect predictor lookups.
system.switch_cpus.branchPred.indirectMisses      2123042                       # Number of indirect misses.
system.switch_cpus.branchPred.lookups         5990341                       # Number of BP lookups
system.switch_cpus.branchPred.usedRAS               1                       # Number of times the RAS was used to get a target.
system.switch_cpus.branchPredindirectMispredicted       268041                       # Number of mispredicted indirect branches.
system.switch_cpus.cc_regfile_reads          15994390                       # number of cc regfile reads
system.switch_cpus.cc_regfile_writes         11886635                       # number of cc regfile writes
system.switch_cpus.commit.amos                      0                       # Number of atomic instructions committed
system.switch_cpus.commit.branchMispredicts       566347                       # The number of times a branch was mispredicted
system.switch_cpus.commit.branches            2315914                       # Number of branches committed
system.switch_cpus.commit.bw_lim_events        994555                       # number cycles where commit BW limit reached
system.switch_cpus.commit.commitSquashedInsts     18837347                       # The number of squashed insts skipped by commit
system.switch_cpus.commit.committedInsts     10000002                       # Number of instructions committed
system.switch_cpus.commit.committedOps       16824999                       # Number of ops (including micro ops) committed
system.switch_cpus.commit.committed_per_cycle::samples     15555400                       # Number of insts commited each cycle
system.switch_cpus.commit.committed_per_cycle::mean     1.081618                       # Number of insts commited each cycle
system.switch_cpus.commit.committed_per_cycle::stdev     2.252138                       # Number of insts commited each cycle
system.switch_cpus.commit.committed_per_cycle::underflows            0      0.00%      0.00% # Number of insts commited each cycle
system.switch_cpus.commit.committed_per_cycle::0     11160546     71.75%     71.75% # Number of insts commited each cycle
system.switch_cpus.commit.committed_per_cycle::1      1221809      7.85%     79.60% # Number of insts commited each cycle
system.switch_cpus.commit.committed_per_cycle::2       803889      5.17%     84.77% # Number of insts commited each cycle
system.switch_cpus.commit.committed_per_cycle::3       503867      3.24%     88.01% # Number of insts commited each cycle
system.switch_cpus.commit.committed_per_cycle::4       257377      1.65%     89.66% # Number of insts commited each cycle
system.switch_cpus.commit.committed_per_cycle::5       322113      2.07%     91.73% # Number of insts commited each cycle
system.switch_cpus.commit.committed_per_cycle::6       151410      0.97%     92.71% # Number of insts commited each cycle
system.switch_cpus.commit.committed_per_cycle::7       139834      0.90%     93.61% # Number of insts commited each cycle
system.switch_cpus.commit.committed_per_cycle::8       994555      6.39%    100.00% # Number of insts commited each cycle
system.switch_cpus.commit.committed_per_cycle::overflows            0      0.00%    100.00% # Number of insts commited each cycle
system.switch_cpus.commit.committed_per_cycle::min_value            0                       # Number of insts commited each cycle
system.switch_cpus.commit.committed_per_cycle::max_value            8                       # Number of insts commited each cycle
system.switch_cpus.commit.committed_per_cycle::total     15555400                       # Number of insts commited each cycle
system.switch_cpus.commit.fp_insts              36688                       # Number of committed floating point instructions.
system.switch_cpus.commit.function_calls            0                       # Number of function calls committed.
system.switch_cpus.commit.int_insts          16806542                       # Number of committed integer instructions.
system.switch_cpus.commit.loads               1871376                       # Number of loads committed
system.switch_cpus.commit.membars                   0                       # Number of memory barriers committed
system.switch_cpus.commit.op_class_0::No_OpClass        18457      0.11%      0.11% # Class of committed instruction
system.switch_cpus.commit.op_class_0::IntAlu     14350133     85.29%     85.40% # Class of committed instruction
system.switch_cpus.commit.op_class_0::IntMult        10952      0.07%     85.47% # Class of committed instruction
system.switch_cpus.commit.op_class_0::IntDiv            0      0.00%     85.47% # Class of committed instruction
system.switch_cpus.commit.op_class_0::FloatAdd            0      0.00%     85.47% # Class of committed instruction
system.switch_cpus.commit.op_class_0::FloatCmp            0      0.00%     85.47% # Class of committed instruction
system.switch_cpus.commit.op_class_0::FloatCvt            0      0.00%     85.47% # Class of committed instruction
system.switch_cpus.commit.op_class_0::FloatMult            0      0.00%     85.47% # Class of committed instruction
system.switch_cpus.commit.op_class_0::FloatMultAcc            0      0.00%     85.47% # Class of committed instruction
system.switch_cpus.commit.op_class_0::FloatDiv            0      0.00%     85.47% # Class of committed instruction
system.switch_cpus.commit.op_class_0::FloatMisc            0      0.00%     85.47% # Class of committed instruction
system.switch_cpus.commit.op_class_0::FloatSqrt            0      0.00%     85.47% # Class of committed instruction
system.switch_cpus.commit.op_class_0::SimdAdd            0      0.00%     85.47% # Class of committed instruction
system.switch_cpus.commit.op_class_0::SimdAddAcc            0      0.00%     85.47% # Class of committed instruction
system.switch_cpus.commit.op_class_0::SimdAlu            0      0.00%     85.47% # Class of committed instruction
system.switch_cpus.commit.op_class_0::SimdCmp            0      0.00%     85.47% # Class of committed instruction
system.switch_cpus.commit.op_class_0::SimdCvt            0      0.00%     85.47% # Class of committed instruction
system.switch_cpus.commit.op_class_0::SimdMisc            0      0.00%     85.47% # Class of committed instruction
system.switch_cpus.commit.op_class_0::SimdMult            0      0.00%     85.47% # Class of committed instruction
system.switch_cpus.commit.op_class_0::SimdMultAcc            0      0.00%     85.47% # Class of committed instruction
system.switch_cpus.commit.op_class_0::SimdShift            0      0.00%     85.47% # Class of committed instruction
system.switch_cpus.commit.op_class_0::SimdShiftAcc            0      0.00%     85.47% # Class of committed instruction
system.switch_cpus.commit.op_class_0::SimdDiv            0      0.00%     85.47% # Class of committed instruction
system.switch_cpus.commit.op_class_0::SimdSqrt            0      0.00%     85.47% # Class of committed instruction
system.switch_cpus.commit.op_class_0::SimdFloatAdd            0      0.00%     85.47% # Class of committed instruction
system.switch_cpus.commit.op_class_0::SimdFloatAlu            0      0.00%     85.47% # Class of committed instruction
system.switch_cpus.commit.op_class_0::SimdFloatCmp            0      0.00%     85.47% # Class of committed instruction
system.switch_cpus.commit.op_class_0::SimdFloatCvt            0      0.00%     85.47% # Class of committed instruction
system.switch_cpus.commit.op_class_0::SimdFloatDiv            0      0.00%     85.47% # Class of committed instruction
system.switch_cpus.commit.op_class_0::SimdFloatMisc            0      0.00%     85.47% # Class of committed instruction
system.switch_cpus.commit.op_class_0::SimdFloatMult            0      0.00%     85.47% # Class of committed instruction
system.switch_cpus.commit.op_class_0::SimdFloatMultAcc            0      0.00%     85.47% # Class of committed instruction
system.switch_cpus.commit.op_class_0::SimdFloatSqrt            0      0.00%     85.47% # Class of committed instruction
system.switch_cpus.commit.op_class_0::SimdReduceAdd            0      0.00%     85.47% # Class of committed instruction
system.switch_cpus.commit.op_class_0::SimdReduceAlu            0      0.00%     85.47% # Class of committed instruction
system.switch_cpus.commit.op_class_0::SimdReduceCmp            0      0.00%     85.47% # Class of committed instruction
system.switch_cpus.commit.op_class_0::SimdFloatReduceAdd            0      0.00%     85.47% # Class of committed instruction
system.switch_cpus.commit.op_class_0::SimdFloatReduceCmp            0      0.00%     85.47% # Class of committed instruction
system.switch_cpus.commit.op_class_0::SimdAes            0      0.00%     85.47% # Class of committed instruction
system.switch_cpus.commit.op_class_0::SimdAesMix            0      0.00%     85.47% # Class of committed instruction
system.switch_cpus.commit.op_class_0::SimdSha1Hash            0      0.00%     85.47% # Class of committed instruction
system.switch_cpus.commit.op_class_0::SimdSha1Hash2            0      0.00%     85.47% # Class of committed instruction
system.switch_cpus.commit.op_class_0::SimdSha256Hash            0      0.00%     85.47% # Class of committed instruction
system.switch_cpus.commit.op_class_0::SimdSha256Hash2            0      0.00%     85.47% # Class of committed instruction
system.switch_cpus.commit.op_class_0::SimdShaSigma2            0      0.00%     85.47% # Class of committed instruction
system.switch_cpus.commit.op_class_0::SimdShaSigma3            0      0.00%     85.47% # Class of committed instruction
system.switch_cpus.commit.op_class_0::SimdPredAlu            0      0.00%     85.47% # Class of committed instruction
system.switch_cpus.commit.op_class_0::MemRead      1853032     11.01%     96.48% # Class of committed instruction
system.switch_cpus.commit.op_class_0::MemWrite       555737      3.30%     99.78% # Class of committed instruction
system.switch_cpus.commit.op_class_0::FloatMemRead        18344      0.11%     99.89% # Class of committed instruction
system.switch_cpus.commit.op_class_0::FloatMemWrite        18344      0.11%    100.00% # Class of committed instruction
system.switch_cpus.commit.op_class_0::IprAccess            0      0.00%    100.00% # Class of committed instruction
system.switch_cpus.commit.op_class_0::InstPrefetch            0      0.00%    100.00% # Class of committed instruction
system.switch_cpus.commit.op_class_0::total     16824999                       # Class of committed instruction
system.switch_cpus.commit.refs                2445457                       # Number of memory references committed
system.switch_cpus.commit.swp_count                 0                       # Number of s/w prefetches committed
system.switch_cpus.commit.vec_insts                 0                       # Number of committed Vector instructions.
system.switch_cpus.committedInsts            10000002                       # Number of Instructions Simulated
system.switch_cpus.committedOps              16824999                       # Number of Ops (including micro ops) Simulated
system.switch_cpus.cpi                       1.843195                       # CPI: Cycles Per Instruction
system.switch_cpus.cpi_total                 1.843195                       # CPI: Total CPI of All Threads
system.switch_cpus.decode.BlockedCycles       6982349                       # Number of cycles decode is blocked
system.switch_cpus.decode.DecodedInsts       42826878                       # Number of instructions handled by decode
system.switch_cpus.decode.IdleCycles          3915669                       # Number of cycles decode is idle
system.switch_cpus.decode.RunCycles           6404468                       # Number of cycles decode is running
system.switch_cpus.decode.SquashCycles         567397                       # Number of cycles decode is squashing
system.switch_cpus.decode.UnblockCycles        559393                       # Number of cycles decode is unblocking
system.switch_cpus.dtb.rdAccesses             3214621                       # TLB accesses on read requests
system.switch_cpus.dtb.rdMisses                370700                       # TLB misses on read requests
system.switch_cpus.dtb.wrAccesses             1028346                       # TLB accesses on write requests
system.switch_cpus.dtb.wrMisses                  3345                       # TLB misses on write requests
system.switch_cpus.fetch.Branches             5990341                       # Number of branches that fetch encountered
system.switch_cpus.fetch.CacheLines           4585846                       # Number of cache lines fetched
system.switch_cpus.fetch.Cycles              12984952                       # Number of cycles fetch has run and was not squashing or blocked
system.switch_cpus.fetch.IcacheSquashes        172107                       # Number of outstanding Icache misses that were squashed
system.switch_cpus.fetch.Insts               28820743                       # Number of instructions fetch has processed
system.switch_cpus.fetch.SquashCycles         1134794                       # Number of cycles fetch has spent squashing
system.switch_cpus.fetch.branchRate          0.324998                       # Number of branch fetches per cycle
system.switch_cpus.fetch.icacheStallCycles      4876932                       # Number of cycles fetch is stalled on an Icache miss
system.switch_cpus.fetch.predictedBranches      2778886                       # Number of branches that fetch has predicted taken
system.switch_cpus.fetch.rate                1.563630                       # Number of inst fetches per cycle
system.switch_cpus.fetch.rateDist::samples     18429281                       # Number of instructions fetched each cycle (Total)
system.switch_cpus.fetch.rateDist::mean      2.539010                       # Number of instructions fetched each cycle (Total)
system.switch_cpus.fetch.rateDist::stdev     3.304862                       # Number of instructions fetched each cycle (Total)
system.switch_cpus.fetch.rateDist::underflows            0      0.00%      0.00% # Number of instructions fetched each cycle (Total)
system.switch_cpus.fetch.rateDist::0         10157809     55.12%     55.12% # Number of instructions fetched each cycle (Total)
system.switch_cpus.fetch.rateDist::1           671390      3.64%     58.76% # Number of instructions fetched each cycle (Total)
system.switch_cpus.fetch.rateDist::2           823221      4.47%     63.23% # Number of instructions fetched each cycle (Total)
system.switch_cpus.fetch.rateDist::3           932536      5.06%     68.29% # Number of instructions fetched each cycle (Total)
system.switch_cpus.fetch.rateDist::4           455068      2.47%     70.76% # Number of instructions fetched each cycle (Total)
system.switch_cpus.fetch.rateDist::5           419054      2.27%     73.03% # Number of instructions fetched each cycle (Total)
system.switch_cpus.fetch.rateDist::6           945950      5.13%     78.16% # Number of instructions fetched each cycle (Total)
system.switch_cpus.fetch.rateDist::7           108573      0.59%     78.75% # Number of instructions fetched each cycle (Total)
system.switch_cpus.fetch.rateDist::8          3915680     21.25%    100.00% # Number of instructions fetched each cycle (Total)
system.switch_cpus.fetch.rateDist::overflows            0      0.00%    100.00% # Number of instructions fetched each cycle (Total)
system.switch_cpus.fetch.rateDist::min_value            0                       # Number of instructions fetched each cycle (Total)
system.switch_cpus.fetch.rateDist::max_value            8                       # Number of instructions fetched each cycle (Total)
system.switch_cpus.fetch.rateDist::total     18429281                       # Number of instructions fetched each cycle (Total)
system.switch_cpus.fp_regfile_reads             18381                       # number of floating regfile reads
system.switch_cpus.fp_regfile_writes            18604                       # number of floating regfile writes
system.switch_cpus.idleCycles                    2670                       # Total number of cycles that the CPU has spent unscheduled due to idling
system.switch_cpus.iew.branchMispredicts       640939                       # Number of branch mispredicts detected at execute
system.switch_cpus.iew.exec_branches          3576034                       # Number of branches executed
system.switch_cpus.iew.exec_nop                     0                       # number of nop insts executed
system.switch_cpus.iew.exec_rate             1.663322                       # Inst execution rate
system.switch_cpus.iew.exec_refs              4629245                       # number of memory reference insts executed
system.switch_cpus.iew.exec_stores            1027259                       # Number of stores executed
system.switch_cpus.iew.exec_swp                     0                       # number of swp insts executed
system.switch_cpus.iew.iewBlockCycles         2448270                       # Number of cycles IEW is blocking
system.switch_cpus.iew.iewDispLoadInsts       3937890                       # Number of dispatched load instructions
system.switch_cpus.iew.iewDispNonSpecInsts            0                       # Number of dispatched non-speculative instructions
system.switch_cpus.iew.iewDispSquashedInsts        62170                       # Number of squashed instructions skipped by dispatch
system.switch_cpus.iew.iewDispStoreInsts      1506490                       # Number of dispatched store instructions
system.switch_cpus.iew.iewDispatchedInsts     35662373                       # Number of instructions dispatched to IQ
system.switch_cpus.iew.iewExecLoadInsts       3601986                       # Number of load instructions executed
system.switch_cpus.iew.iewExecSquashedInsts      1296799                       # Number of squashed instructions skipped in execute
system.switch_cpus.iew.iewExecutedInsts      30658268                       # Number of executed instructions
system.switch_cpus.iew.iewIQFullEvents           5982                       # Number of times the IQ has become full, causing a stall
system.switch_cpus.iew.iewIdleCycles                0                       # Number of cycles IEW is idle
system.switch_cpus.iew.iewLSQFullEvents             0                       # Number of times the LSQ has become full, causing a stall
system.switch_cpus.iew.iewSquashCycles         567397                       # Number of cycles IEW is squashing
system.switch_cpus.iew.iewUnblockCycles          7563                       # Number of cycles IEW is unblocking
system.switch_cpus.iew.lsq.thread0.blockedLoads            0                       # Number of blocked loads due to partial load-store forwarding
system.switch_cpus.iew.lsq.thread0.cacheBlocked       107649                       # Number of times an access to memory failed due to the cache being blocked
system.switch_cpus.iew.lsq.thread0.forwLoads       116734                       # Number of loads that had data forwarded from stores
system.switch_cpus.iew.lsq.thread0.ignoredResponses         1452                       # Number of memory responses ignored because the instruction is squashed
system.switch_cpus.iew.lsq.thread0.invAddrLoads            0                       # Number of loads ignored due to an invalid address
system.switch_cpus.iew.lsq.thread0.invAddrSwpfs            0                       # Number of software prefetches ignored due to an invalid address
system.switch_cpus.iew.lsq.thread0.memOrderViolation         1633                       # Number of memory ordering violations
system.switch_cpus.iew.lsq.thread0.rescheduledLoads            1                       # Number of loads that were rescheduled
system.switch_cpus.iew.lsq.thread0.squashedLoads      2066514                       # Number of loads squashed
system.switch_cpus.iew.lsq.thread0.squashedStores       932409                       # Number of stores squashed
system.switch_cpus.iew.memOrderViolationEvents         1633                       # Number of memory order violations
system.switch_cpus.iew.predictedNotTakenIncorrect       443160                       # Number of branches that were predicted not taken incorrectly
system.switch_cpus.iew.predictedTakenIncorrect       197779                       # Number of branches that were predicted taken incorrectly
system.switch_cpus.iew.wb_consumers          29494653                       # num instructions consuming a value
system.switch_cpus.iew.wb_count              29745745                       # cumulative count of insts written-back
system.switch_cpus.iew.wb_fanout             0.723403                       # average fanout of values written-back
system.switch_cpus.iew.wb_producers          21336528                       # num instructions producing a value
system.switch_cpus.iew.wb_rate               1.613814                       # insts written-back per cycle
system.switch_cpus.iew.wb_sent               29883381                       # cumulative count of insts sent to commit
system.switch_cpus.int_regfile_reads         40129627                       # number of integer regfile reads
system.switch_cpus.int_regfile_writes        25115144                       # number of integer regfile writes
system.switch_cpus.ipc                       0.542536                       # IPC: Instructions Per Cycle
system.switch_cpus.ipc_total                 0.542536                       # IPC: Total IPC of All Threads
system.switch_cpus.iq.FU_type_0::No_OpClass       125494      0.39%      0.39% # Type of FU issued
system.switch_cpus.iq.FU_type_0::IntAlu      26947048     84.33%     84.72% # Type of FU issued
system.switch_cpus.iq.FU_type_0::IntMult        13820      0.04%     84.76% # Type of FU issued
system.switch_cpus.iq.FU_type_0::IntDiv             0      0.00%     84.76% # Type of FU issued
system.switch_cpus.iq.FU_type_0::FloatAdd            0      0.00%     84.76% # Type of FU issued
system.switch_cpus.iq.FU_type_0::FloatCmp            0      0.00%     84.76% # Type of FU issued
system.switch_cpus.iq.FU_type_0::FloatCvt            0      0.00%     84.76% # Type of FU issued
system.switch_cpus.iq.FU_type_0::FloatMult            0      0.00%     84.76% # Type of FU issued
system.switch_cpus.iq.FU_type_0::FloatMultAcc            0      0.00%     84.76% # Type of FU issued
system.switch_cpus.iq.FU_type_0::FloatDiv            0      0.00%     84.76% # Type of FU issued
system.switch_cpus.iq.FU_type_0::FloatMisc            0      0.00%     84.76% # Type of FU issued
system.switch_cpus.iq.FU_type_0::FloatSqrt            0      0.00%     84.76% # Type of FU issued
system.switch_cpus.iq.FU_type_0::SimdAdd            0      0.00%     84.76% # Type of FU issued
system.switch_cpus.iq.FU_type_0::SimdAddAcc            0      0.00%     84.76% # Type of FU issued
system.switch_cpus.iq.FU_type_0::SimdAlu            0      0.00%     84.76% # Type of FU issued
system.switch_cpus.iq.FU_type_0::SimdCmp            0      0.00%     84.76% # Type of FU issued
system.switch_cpus.iq.FU_type_0::SimdCvt            0      0.00%     84.76% # Type of FU issued
system.switch_cpus.iq.FU_type_0::SimdMisc            0      0.00%     84.76% # Type of FU issued
system.switch_cpus.iq.FU_type_0::SimdMult            0      0.00%     84.76% # Type of FU issued
system.switch_cpus.iq.FU_type_0::SimdMultAcc            0      0.00%     84.76% # Type of FU issued
system.switch_cpus.iq.FU_type_0::SimdShift            0      0.00%     84.76% # Type of FU issued
system.switch_cpus.iq.FU_type_0::SimdShiftAcc            0      0.00%     84.76% # Type of FU issued
system.switch_cpus.iq.FU_type_0::SimdDiv            0      0.00%     84.76% # Type of FU issued
system.switch_cpus.iq.FU_type_0::SimdSqrt            0      0.00%     84.76% # Type of FU issued
system.switch_cpus.iq.FU_type_0::SimdFloatAdd            0      0.00%     84.76% # Type of FU issued
system.switch_cpus.iq.FU_type_0::SimdFloatAlu            0      0.00%     84.76% # Type of FU issued
system.switch_cpus.iq.FU_type_0::SimdFloatCmp            0      0.00%     84.76% # Type of FU issued
system.switch_cpus.iq.FU_type_0::SimdFloatCvt            0      0.00%     84.76% # Type of FU issued
system.switch_cpus.iq.FU_type_0::SimdFloatDiv            0      0.00%     84.76% # Type of FU issued
system.switch_cpus.iq.FU_type_0::SimdFloatMisc            0      0.00%     84.76% # Type of FU issued
system.switch_cpus.iq.FU_type_0::SimdFloatMult            0      0.00%     84.76% # Type of FU issued
system.switch_cpus.iq.FU_type_0::SimdFloatMultAcc            0      0.00%     84.76% # Type of FU issued
system.switch_cpus.iq.FU_type_0::SimdFloatSqrt            0      0.00%     84.76% # Type of FU issued
system.switch_cpus.iq.FU_type_0::SimdReduceAdd            0      0.00%     84.76% # Type of FU issued
system.switch_cpus.iq.FU_type_0::SimdReduceAlu            0      0.00%     84.76% # Type of FU issued
system.switch_cpus.iq.FU_type_0::SimdReduceCmp            0      0.00%     84.76% # Type of FU issued
system.switch_cpus.iq.FU_type_0::SimdFloatReduceAdd            0      0.00%     84.76% # Type of FU issued
system.switch_cpus.iq.FU_type_0::SimdFloatReduceCmp            0      0.00%     84.76% # Type of FU issued
system.switch_cpus.iq.FU_type_0::SimdAes            0      0.00%     84.76% # Type of FU issued
system.switch_cpus.iq.FU_type_0::SimdAesMix            0      0.00%     84.76% # Type of FU issued
system.switch_cpus.iq.FU_type_0::SimdSha1Hash            0      0.00%     84.76% # Type of FU issued
system.switch_cpus.iq.FU_type_0::SimdSha1Hash2            0      0.00%     84.76% # Type of FU issued
system.switch_cpus.iq.FU_type_0::SimdSha256Hash            0      0.00%     84.76% # Type of FU issued
system.switch_cpus.iq.FU_type_0::SimdSha256Hash2            0      0.00%     84.76% # Type of FU issued
system.switch_cpus.iq.FU_type_0::SimdShaSigma2            0      0.00%     84.76% # Type of FU issued
system.switch_cpus.iq.FU_type_0::SimdShaSigma3            0      0.00%     84.76% # Type of FU issued
system.switch_cpus.iq.FU_type_0::SimdPredAlu            0      0.00%     84.76% # Type of FU issued
system.switch_cpus.iq.FU_type_0::MemRead      3779214     11.83%     96.59% # Type of FU issued
system.switch_cpus.iq.FU_type_0::MemWrite      1051712      3.29%     99.88% # Type of FU issued
system.switch_cpus.iq.FU_type_0::FloatMemRead        19363      0.06%     99.94% # Type of FU issued
system.switch_cpus.iq.FU_type_0::FloatMemWrite        18416      0.06%    100.00% # Type of FU issued
system.switch_cpus.iq.FU_type_0::IprAccess            0      0.00%    100.00% # Type of FU issued
system.switch_cpus.iq.FU_type_0::InstPrefetch            0      0.00%    100.00% # Type of FU issued
system.switch_cpus.iq.FU_type_0::total       31955067                       # Type of FU issued
system.switch_cpus.iq.fp_alu_accesses           38426                       # Number of floating point alu accesses
system.switch_cpus.iq.fp_inst_queue_reads        76222                       # Number of floating instruction queue reads
system.switch_cpus.iq.fp_inst_queue_wakeup_accesses        36785                       # Number of floating instruction queue wakeup accesses
system.switch_cpus.iq.fp_inst_queue_writes        49674                       # Number of floating instruction queue writes
system.switch_cpus.iq.fu_busy_cnt              481428                       # FU busy when requested
system.switch_cpus.iq.fu_busy_rate           0.015066                       # FU busy rate (busy events/executed inst)
system.switch_cpus.iq.fu_full::No_OpClass            0      0.00%      0.00% # attempts to use FU when none available
system.switch_cpus.iq.fu_full::IntAlu          429956     89.31%     89.31% # attempts to use FU when none available
system.switch_cpus.iq.fu_full::IntMult              0      0.00%     89.31% # attempts to use FU when none available
system.switch_cpus.iq.fu_full::IntDiv               0      0.00%     89.31% # attempts to use FU when none available
system.switch_cpus.iq.fu_full::FloatAdd             0      0.00%     89.31% # attempts to use FU when none available
system.switch_cpus.iq.fu_full::FloatCmp             0      0.00%     89.31% # attempts to use FU when none available
system.switch_cpus.iq.fu_full::FloatCvt             0      0.00%     89.31% # attempts to use FU when none available
system.switch_cpus.iq.fu_full::FloatMult            0      0.00%     89.31% # attempts to use FU when none available
system.switch_cpus.iq.fu_full::FloatMultAcc            0      0.00%     89.31% # attempts to use FU when none available
system.switch_cpus.iq.fu_full::FloatDiv             0      0.00%     89.31% # attempts to use FU when none available
system.switch_cpus.iq.fu_full::FloatMisc            0      0.00%     89.31% # attempts to use FU when none available
system.switch_cpus.iq.fu_full::FloatSqrt            0      0.00%     89.31% # attempts to use FU when none available
system.switch_cpus.iq.fu_full::SimdAdd              0      0.00%     89.31% # attempts to use FU when none available
system.switch_cpus.iq.fu_full::SimdAddAcc            0      0.00%     89.31% # attempts to use FU when none available
system.switch_cpus.iq.fu_full::SimdAlu              0      0.00%     89.31% # attempts to use FU when none available
system.switch_cpus.iq.fu_full::SimdCmp              0      0.00%     89.31% # attempts to use FU when none available
system.switch_cpus.iq.fu_full::SimdCvt              0      0.00%     89.31% # attempts to use FU when none available
system.switch_cpus.iq.fu_full::SimdMisc             0      0.00%     89.31% # attempts to use FU when none available
system.switch_cpus.iq.fu_full::SimdMult             0      0.00%     89.31% # attempts to use FU when none available
system.switch_cpus.iq.fu_full::SimdMultAcc            0      0.00%     89.31% # attempts to use FU when none available
system.switch_cpus.iq.fu_full::SimdShift            0      0.00%     89.31% # attempts to use FU when none available
system.switch_cpus.iq.fu_full::SimdShiftAcc            0      0.00%     89.31% # attempts to use FU when none available
system.switch_cpus.iq.fu_full::SimdDiv              0      0.00%     89.31% # attempts to use FU when none available
system.switch_cpus.iq.fu_full::SimdSqrt             0      0.00%     89.31% # attempts to use FU when none available
system.switch_cpus.iq.fu_full::SimdFloatAdd            0      0.00%     89.31% # attempts to use FU when none available
system.switch_cpus.iq.fu_full::SimdFloatAlu            0      0.00%     89.31% # attempts to use FU when none available
system.switch_cpus.iq.fu_full::SimdFloatCmp            0      0.00%     89.31% # attempts to use FU when none available
system.switch_cpus.iq.fu_full::SimdFloatCvt            0      0.00%     89.31% # attempts to use FU when none available
system.switch_cpus.iq.fu_full::SimdFloatDiv            0      0.00%     89.31% # attempts to use FU when none available
system.switch_cpus.iq.fu_full::SimdFloatMisc            0      0.00%     89.31% # attempts to use FU when none available
system.switch_cpus.iq.fu_full::SimdFloatMult            0      0.00%     89.31% # attempts to use FU when none available
system.switch_cpus.iq.fu_full::SimdFloatMultAcc            0      0.00%     89.31% # attempts to use FU when none available
system.switch_cpus.iq.fu_full::SimdFloatSqrt            0      0.00%     89.31% # attempts to use FU when none available
system.switch_cpus.iq.fu_full::SimdReduceAdd            0      0.00%     89.31% # attempts to use FU when none available
system.switch_cpus.iq.fu_full::SimdReduceAlu            0      0.00%     89.31% # attempts to use FU when none available
system.switch_cpus.iq.fu_full::SimdReduceCmp            0      0.00%     89.31% # attempts to use FU when none available
system.switch_cpus.iq.fu_full::SimdFloatReduceAdd            0      0.00%     89.31% # attempts to use FU when none available
system.switch_cpus.iq.fu_full::SimdFloatReduceCmp            0      0.00%     89.31% # attempts to use FU when none available
system.switch_cpus.iq.fu_full::SimdAes              0      0.00%     89.31% # attempts to use FU when none available
system.switch_cpus.iq.fu_full::SimdAesMix            0      0.00%     89.31% # attempts to use FU when none available
system.switch_cpus.iq.fu_full::SimdSha1Hash            0      0.00%     89.31% # attempts to use FU when none available
system.switch_cpus.iq.fu_full::SimdSha1Hash2            0      0.00%     89.31% # attempts to use FU when none available
system.switch_cpus.iq.fu_full::SimdSha256Hash            0      0.00%     89.31% # attempts to use FU when none available
system.switch_cpus.iq.fu_full::SimdSha256Hash2            0      0.00%     89.31% # attempts to use FU when none available
system.switch_cpus.iq.fu_full::SimdShaSigma2            0      0.00%     89.31% # attempts to use FU when none available
system.switch_cpus.iq.fu_full::SimdShaSigma3            0      0.00%     89.31% # attempts to use FU when none available
system.switch_cpus.iq.fu_full::SimdPredAlu            0      0.00%     89.31% # attempts to use FU when none available
system.switch_cpus.iq.fu_full::MemRead          50679     10.53%     99.84% # attempts to use FU when none available
system.switch_cpus.iq.fu_full::MemWrite           146      0.03%     99.87% # attempts to use FU when none available
system.switch_cpus.iq.fu_full::FloatMemRead          614      0.13%     99.99% # attempts to use FU when none available
system.switch_cpus.iq.fu_full::FloatMemWrite           33      0.01%    100.00% # attempts to use FU when none available
system.switch_cpus.iq.fu_full::IprAccess            0      0.00%    100.00% # attempts to use FU when none available
system.switch_cpus.iq.fu_full::InstPrefetch            0      0.00%    100.00% # attempts to use FU when none available
system.switch_cpus.iq.int_alu_accesses       32272575                       # Number of integer alu accesses
system.switch_cpus.iq.int_inst_queue_reads     82850212                       # Number of integer instruction queue reads
system.switch_cpus.iq.int_inst_queue_wakeup_accesses     29708960                       # Number of integer instruction queue wakeup accesses
system.switch_cpus.iq.int_inst_queue_writes     54451507                       # Number of integer instruction queue writes
system.switch_cpus.iq.iqInstsAdded           35662373                       # Number of instructions added to the IQ (excludes non-spec)
system.switch_cpus.iq.iqInstsIssued          31955067                       # Number of instructions issued
system.switch_cpus.iq.iqSquashedInstsExamined     18837370                       # Number of squashed instructions iterated over during squash; mainly for profiling
system.switch_cpus.iq.iqSquashedInstsIssued       105591                       # Number of squashed instructions issued
system.switch_cpus.iq.iqSquashedOperandsExamined     18944675                       # Number of squashed operands that are examined and possibly removed from graph
system.switch_cpus.iq.issued_per_cycle::samples     18429281                       # Number of insts issued each cycle
system.switch_cpus.iq.issued_per_cycle::mean     1.733929                       # Number of insts issued each cycle
system.switch_cpus.iq.issued_per_cycle::stdev     2.256347                       # Number of insts issued each cycle
system.switch_cpus.iq.issued_per_cycle::underflows            0      0.00%      0.00% # Number of insts issued each cycle
system.switch_cpus.iq.issued_per_cycle::0      9879534     53.61%     53.61% # Number of insts issued each cycle
system.switch_cpus.iq.issued_per_cycle::1      1055431      5.73%     59.33% # Number of insts issued each cycle
system.switch_cpus.iq.issued_per_cycle::2      1553759      8.43%     67.77% # Number of insts issued each cycle
system.switch_cpus.iq.issued_per_cycle::3      1523451      8.27%     76.03% # Number of insts issued each cycle
system.switch_cpus.iq.issued_per_cycle::4      1527842      8.29%     84.32% # Number of insts issued each cycle
system.switch_cpus.iq.issued_per_cycle::5      1177701      6.39%     90.71% # Number of insts issued each cycle
system.switch_cpus.iq.issued_per_cycle::6       941411      5.11%     95.82% # Number of insts issued each cycle
system.switch_cpus.iq.issued_per_cycle::7       587790      3.19%     99.01% # Number of insts issued each cycle
system.switch_cpus.iq.issued_per_cycle::8       182362      0.99%    100.00% # Number of insts issued each cycle
system.switch_cpus.iq.issued_per_cycle::overflows            0      0.00%    100.00% # Number of insts issued each cycle
system.switch_cpus.iq.issued_per_cycle::min_value            0                       # Number of insts issued each cycle
system.switch_cpus.iq.issued_per_cycle::max_value            8                       # Number of insts issued each cycle
system.switch_cpus.iq.issued_per_cycle::total     18429281                       # Number of insts issued each cycle
system.switch_cpus.iq.rate                   1.733678                       # Inst issue rate
system.switch_cpus.iq.vec_alu_accesses              0                       # Number of vector alu accesses
system.switch_cpus.iq.vec_inst_queue_reads            0                       # Number of vector instruction queue reads
system.switch_cpus.iq.vec_inst_queue_wakeup_accesses            0                       # Number of vector instruction queue wakeup accesses
system.switch_cpus.iq.vec_inst_queue_writes            0                       # Number of vector instruction queue writes
system.switch_cpus.itb.rdAccesses                   0                       # TLB accesses on read requests
system.switch_cpus.itb.rdMisses                     0                       # TLB misses on read requests
system.switch_cpus.itb.wrAccesses             4585846                       # TLB accesses on write requests
system.switch_cpus.itb.wrMisses                     4                       # TLB misses on write requests
system.switch_cpus.memDep0.conflictingLoads       474564                       # Number of conflicting loads.
system.switch_cpus.memDep0.conflictingStores       570816                       # Number of conflicting stores.
system.switch_cpus.memDep0.insertedLoads      3937890                       # Number of loads inserted to the mem dependence unit.
system.switch_cpus.memDep0.insertedStores      1506490                       # Number of stores inserted to the mem dependence unit.
system.switch_cpus.misc_regfile_reads        12656428                       # number of misc regfile reads
system.switch_cpus.misc_regfile_writes              1                       # number of misc regfile writes
system.switch_cpus.numCycles                 18431951                       # number of cpu cycles simulated
system.switch_cpus.numWorkItemsCompleted            0                       # number of work items this cpu completed
system.switch_cpus.numWorkItemsStarted              0                       # number of work items this cpu started
system.switch_cpus.rename.BlockCycles         6729810                       # Number of cycles rename is blocking
system.switch_cpus.rename.CommittedMaps      20843697                       # Number of HB maps that are committed
system.switch_cpus.rename.IQFullEvents          88679                       # Number of times rename has blocked due to IQ full
system.switch_cpus.rename.IdleCycles          4322466                       # Number of cycles rename is idle
system.switch_cpus.rename.ROBFullEvents        182345                       # Number of times rename has blocked due to ROB full
system.switch_cpus.rename.RenameLookups      98645124                       # Number of register rename lookups that rename has made
system.switch_cpus.rename.RenamedInsts       40277191                       # Number of instructions processed by rename
system.switch_cpus.rename.RenamedOperands     49691130                       # Number of destination operands rename has renamed
system.switch_cpus.rename.RunCycles           6435213                       # Number of cycles rename is running
system.switch_cpus.rename.SQFullEvents            266                       # Number of times rename has blocked due to SQ full
system.switch_cpus.rename.SquashCycles         567397                       # Number of cycles rename is squashing
system.switch_cpus.rename.UnblockCycles        374390                       # Number of cycles rename is unblocking
system.switch_cpus.rename.UndoneMaps         28847408                       # Number of HB maps that are undone due to squashing
system.switch_cpus.rename.fp_rename_lookups        23062                       # Number of floating rename lookups
system.switch_cpus.rename.int_rename_lookups     56743409                       # Number of integer rename lookups
system.switch_cpus.rename.serializeStallCycles            0                       # count of cycles rename stalled for serializing inst
system.switch_cpus.rename.serializingInsts            0                       # count of serializing insts renamed
system.switch_cpus.rename.skidInsts           1410174                       # count of insts added to the skid buffer
system.switch_cpus.rename.tempSerializingInsts            0                       # count of temporary serializing insts renamed
system.switch_cpus.rob.rob_reads             50223191                       # The number of ROB reads
system.switch_cpus.rob.rob_writes            74219347                       # The number of ROB writes
system.switch_cpus.timesIdled                      28                       # Number of times that the entire CPU went into an idle state and unscheduled itself
system.tol2bus.snoop_filter.hit_multi_requests            0                       # Number of requests hitting in the snoop filter with multiple (>1) holders of the requested data.
system.tol2bus.snoop_filter.hit_multi_snoops            0                       # Number of snoops hitting in the snoop filter with multiple (>1) holders of the requested data.
system.tol2bus.snoop_filter.hit_single_requests       296616                       # Number of requests hitting in the snoop filter with a single holder of the requested data.
system.tol2bus.snoop_filter.hit_single_snoops        31094                       # Number of snoops hitting in the snoop filter with a single holder of the requested data.
system.tol2bus.snoop_filter.tot_requests       594309                       # Total number of requests made to the snoop filter.
system.tol2bus.snoop_filter.tot_snoops          31094                       # Total number of snoops made to the snoop filter.
system.membus.pwrStateResidencyTicks::UNDEFINED 926048819268000                       # Cumulative time (in ticks) in various power states
system.membus.trans_dist::ReadResp             112950                       # Transaction distribution
system.membus.trans_dist::WritebackDirty         5379                       # Transaction distribution
system.membus.trans_dist::CleanEvict           103431                       # Transaction distribution
system.membus.trans_dist::ReadExReq                28                       # Transaction distribution
system.membus.trans_dist::ReadExResp               28                       # Transaction distribution
system.membus.trans_dist::ReadSharedReq        112951                       # Transaction distribution
system.membus.pkt_count_system.l2.mem_side::system.mem_ctrls.port       334767                       # Packet count per connected master and slave (bytes)
system.membus.pkt_count_system.l2.mem_side::total       334767                       # Packet count per connected master and slave (bytes)
system.membus.pkt_count::total                 334767                       # Packet count per connected master and slave (bytes)
system.membus.pkt_size_system.l2.mem_side::system.mem_ctrls.port      7574848                       # Cumulative packet size per connected master and slave (bytes)
system.membus.pkt_size_system.l2.mem_side::total      7574848                       # Cumulative packet size per connected master and slave (bytes)
system.membus.pkt_size::total                 7574848                       # Cumulative packet size per connected master and slave (bytes)
system.membus.snoops                                0                       # Total snoops (count)
system.membus.snoopTraffic                          0                       # Total snoop traffic (bytes)
system.membus.snoop_fanout::samples            112979                       # Request fanout histogram
system.membus.snoop_fanout::mean                    0                       # Request fanout histogram
system.membus.snoop_fanout::stdev                   0                       # Request fanout histogram
system.membus.snoop_fanout::underflows              0      0.00%      0.00% # Request fanout histogram
system.membus.snoop_fanout::0                  112979    100.00%    100.00% # Request fanout histogram
system.membus.snoop_fanout::1                       0      0.00%    100.00% # Request fanout histogram
system.membus.snoop_fanout::overflows               0      0.00%    100.00% # Request fanout histogram
system.membus.snoop_fanout::min_value               0                       # Request fanout histogram
system.membus.snoop_fanout::max_value               0                       # Request fanout histogram
system.membus.snoop_fanout::total              112979                       # Request fanout histogram
system.membus.reqLayer2.occupancy           267889500                       # Layer occupancy (ticks)
system.membus.reqLayer2.utilization               2.9                       # Layer utilization (%)
system.membus.respLayer1.occupancy          604971750                       # Layer occupancy (ticks)
system.membus.respLayer1.utilization              6.6                       # Layer utilization (%)
system.switch_cpus.pwrStateResidencyTicks::OFF   9215985500                       # Cumulative time (in ticks) in various power states
system.switch_cpus.dtb.walker.pwrStateResidencyTicks::UNDEFINED 926048819268000                       # Cumulative time (in ticks) in various power states
system.switch_cpus.itb.walker.pwrStateResidencyTicks::UNDEFINED 926048819268000                       # Cumulative time (in ticks) in various power states
system.tol2bus.pwrStateResidencyTicks::UNDEFINED 926048819268000                       # Cumulative time (in ticks) in various power states
system.tol2bus.trans_dist::ReadResp            297134                       # Transaction distribution
system.tol2bus.trans_dist::WritebackDirty        22487                       # Transaction distribution
system.tol2bus.trans_dist::CleanEvict          384920                       # Transaction distribution
system.tol2bus.trans_dist::ReadExReq              557                       # Transaction distribution
system.tol2bus.trans_dist::ReadExResp             557                       # Transaction distribution
system.tol2bus.trans_dist::ReadCleanReq            51                       # Transaction distribution
system.tol2bus.trans_dist::ReadSharedReq       297085                       # Transaction distribution
system.tol2bus.pkt_count_system.cpu.icache.mem_side::system.l2.cpu_side          102                       # Packet count per connected master and slave (bytes)
system.tol2bus.pkt_count_system.cpu.dcache.mem_side::system.l2.cpu_side       891898                       # Packet count per connected master and slave (bytes)
system.tol2bus.pkt_count::total                892000                       # Packet count per connected master and slave (bytes)
system.tol2bus.pkt_size_system.cpu.icache.mem_side::system.l2.cpu_side         3264                       # Cumulative packet size per connected master and slave (bytes)
system.tol2bus.pkt_size_system.cpu.dcache.mem_side::system.l2.cpu_side     20143872                       # Cumulative packet size per connected master and slave (bytes)
system.tol2bus.pkt_size::total               20147136                       # Cumulative packet size per connected master and slave (bytes)
system.tol2bus.snoops                          110791                       # Total snoops (count)
system.tol2bus.snoopTraffic                    344256                       # Total snoop traffic (bytes)
system.tol2bus.snoop_fanout::samples           408484                       # Request fanout histogram
system.tol2bus.snoop_fanout::mean            0.076120                       # Request fanout histogram
system.tol2bus.snoop_fanout::stdev           0.265191                       # Request fanout histogram
system.tol2bus.snoop_fanout::underflows             0      0.00%      0.00% # Request fanout histogram
system.tol2bus.snoop_fanout::0                 377390     92.39%     92.39% # Request fanout histogram
system.tol2bus.snoop_fanout::1                  31094      7.61%    100.00% # Request fanout histogram
system.tol2bus.snoop_fanout::2                      0      0.00%    100.00% # Request fanout histogram
system.tol2bus.snoop_fanout::3                      0      0.00%    100.00% # Request fanout histogram
system.tol2bus.snoop_fanout::4                      0      0.00%    100.00% # Request fanout histogram
system.tol2bus.snoop_fanout::overflows              0      0.00%    100.00% # Request fanout histogram
system.tol2bus.snoop_fanout::min_value              0                       # Request fanout histogram
system.tol2bus.snoop_fanout::max_value              1                       # Request fanout histogram
system.tol2bus.snoop_fanout::total             408484                       # Request fanout histogram
system.tol2bus.reqLayer0.occupancy          314260500                       # Layer occupancy (ticks)
system.tol2bus.reqLayer0.utilization              3.4                       # Layer utilization (%)
system.tol2bus.respLayer1.occupancy         446457000                       # Layer occupancy (ticks)
system.tol2bus.respLayer1.utilization             4.8                       # Layer utilization (%)
system.tol2bus.respLayer0.occupancy             73500                       # Layer occupancy (ticks)
system.tol2bus.respLayer0.utilization             0.0                       # Layer utilization (%)
system.voltage_domain.voltage                       1                       # Voltage in Volts
system.clk_domain.clock                          1000                       # Clock period in ticks
system.l2.pwrStateResidencyTicks::UNDEFINED 926048819268000                       # Cumulative time (in ticks) in various power states
system.l2.demand_hits::.switch_cpus.data       184714                       # number of demand (read+write) hits
system.l2.demand_hits::total                   184714                       # number of demand (read+write) hits
system.l2.overall_hits::.switch_cpus.data       184714                       # number of overall hits
system.l2.overall_hits::total                  184714                       # number of overall hits
system.l2.demand_misses::.cpu.inst                  2                       # number of demand (read+write) misses
system.l2.demand_misses::.cpu.data                  2                       # number of demand (read+write) misses
system.l2.demand_misses::.switch_cpus.inst           49                       # number of demand (read+write) misses
system.l2.demand_misses::.switch_cpus.data       112926                       # number of demand (read+write) misses
system.l2.demand_misses::total                 112979                       # number of demand (read+write) misses
system.l2.overall_misses::.cpu.inst                 2                       # number of overall misses
system.l2.overall_misses::.cpu.data                 2                       # number of overall misses
system.l2.overall_misses::.switch_cpus.inst           49                       # number of overall misses
system.l2.overall_misses::.switch_cpus.data       112926                       # number of overall misses
system.l2.overall_misses::total                112979                       # number of overall misses
system.l2.demand_miss_latency::.switch_cpus.inst      3924500                       # number of demand (read+write) miss cycles
system.l2.demand_miss_latency::.switch_cpus.data   9830220500                       # number of demand (read+write) miss cycles
system.l2.demand_miss_latency::total       9834145000                       # number of demand (read+write) miss cycles
system.l2.overall_miss_latency::.switch_cpus.inst      3924500                       # number of overall miss cycles
system.l2.overall_miss_latency::.switch_cpus.data   9830220500                       # number of overall miss cycles
system.l2.overall_miss_latency::total      9834145000                       # number of overall miss cycles
system.l2.demand_accesses::.cpu.inst                2                       # number of demand (read+write) accesses
system.l2.demand_accesses::.cpu.data                2                       # number of demand (read+write) accesses
system.l2.demand_accesses::.switch_cpus.inst           49                       # number of demand (read+write) accesses
system.l2.demand_accesses::.switch_cpus.data       297640                       # number of demand (read+write) accesses
system.l2.demand_accesses::total               297693                       # number of demand (read+write) accesses
system.l2.overall_accesses::.cpu.inst               2                       # number of overall (read+write) accesses
system.l2.overall_accesses::.cpu.data               2                       # number of overall (read+write) accesses
system.l2.overall_accesses::.switch_cpus.inst           49                       # number of overall (read+write) accesses
system.l2.overall_accesses::.switch_cpus.data       297640                       # number of overall (read+write) accesses
system.l2.overall_accesses::total              297693                       # number of overall (read+write) accesses
system.l2.demand_miss_rate::.cpu.inst               1                       # miss rate for demand accesses
system.l2.demand_miss_rate::.cpu.data               1                       # miss rate for demand accesses
system.l2.demand_miss_rate::.switch_cpus.inst            1                       # miss rate for demand accesses
system.l2.demand_miss_rate::.switch_cpus.data     0.379405                       # miss rate for demand accesses
system.l2.demand_miss_rate::total            0.379515                       # miss rate for demand accesses
system.l2.overall_miss_rate::.cpu.inst              1                       # miss rate for overall accesses
system.l2.overall_miss_rate::.cpu.data              1                       # miss rate for overall accesses
system.l2.overall_miss_rate::.switch_cpus.inst            1                       # miss rate for overall accesses
system.l2.overall_miss_rate::.switch_cpus.data     0.379405                       # miss rate for overall accesses
system.l2.overall_miss_rate::total           0.379515                       # miss rate for overall accesses
system.l2.demand_avg_miss_latency::.switch_cpus.inst 80091.836735                       # average overall miss latency
system.l2.demand_avg_miss_latency::.switch_cpus.data 87050.108035                       # average overall miss latency
system.l2.demand_avg_miss_latency::total 87044.008179                       # average overall miss latency
system.l2.overall_avg_miss_latency::.switch_cpus.inst 80091.836735                       # average overall miss latency
system.l2.overall_avg_miss_latency::.switch_cpus.data 87050.108035                       # average overall miss latency
system.l2.overall_avg_miss_latency::total 87044.008179                       # average overall miss latency
system.l2.blocked_cycles::no_mshrs                  0                       # number of cycles access was blocked
system.l2.blocked_cycles::no_targets                0                       # number of cycles access was blocked
system.l2.blocked::no_mshrs                         0                       # number of cycles access was blocked
system.l2.blocked::no_targets                       0                       # number of cycles access was blocked
system.l2.avg_blocked_cycles::no_mshrs            nan                       # average number of cycles each access was blocked
system.l2.avg_blocked_cycles::no_targets          nan                       # average number of cycles each access was blocked
system.l2.writebacks::.writebacks                5379                       # number of writebacks
system.l2.writebacks::total                      5379                       # number of writebacks
system.l2.demand_mshr_misses::.switch_cpus.inst           49                       # number of demand (read+write) MSHR misses
system.l2.demand_mshr_misses::.switch_cpus.data       112926                       # number of demand (read+write) MSHR misses
system.l2.demand_mshr_misses::total            112975                       # number of demand (read+write) MSHR misses
system.l2.overall_mshr_misses::.switch_cpus.inst           49                       # number of overall MSHR misses
system.l2.overall_mshr_misses::.switch_cpus.data       112926                       # number of overall MSHR misses
system.l2.overall_mshr_misses::total           112975                       # number of overall MSHR misses
system.l2.demand_mshr_miss_latency::.switch_cpus.inst      3434500                       # number of demand (read+write) MSHR miss cycles
system.l2.demand_mshr_miss_latency::.switch_cpus.data   8700970500                       # number of demand (read+write) MSHR miss cycles
system.l2.demand_mshr_miss_latency::total   8704405000                       # number of demand (read+write) MSHR miss cycles
system.l2.overall_mshr_miss_latency::.switch_cpus.inst      3434500                       # number of overall MSHR miss cycles
system.l2.overall_mshr_miss_latency::.switch_cpus.data   8700970500                       # number of overall MSHR miss cycles
system.l2.overall_mshr_miss_latency::total   8704405000                       # number of overall MSHR miss cycles
system.l2.demand_mshr_miss_rate::.switch_cpus.inst            1                       # mshr miss rate for demand accesses
system.l2.demand_mshr_miss_rate::.switch_cpus.data     0.379405                       # mshr miss rate for demand accesses
system.l2.demand_mshr_miss_rate::total       0.379502                       # mshr miss rate for demand accesses
system.l2.overall_mshr_miss_rate::.switch_cpus.inst            1                       # mshr miss rate for overall accesses
system.l2.overall_mshr_miss_rate::.switch_cpus.data     0.379405                       # mshr miss rate for overall accesses
system.l2.overall_mshr_miss_rate::total      0.379502                       # mshr miss rate for overall accesses
system.l2.demand_avg_mshr_miss_latency::.switch_cpus.inst 70091.836735                       # average overall mshr miss latency
system.l2.demand_avg_mshr_miss_latency::.switch_cpus.data 77050.196589                       # average overall mshr miss latency
system.l2.demand_avg_mshr_miss_latency::total 77047.178579                       # average overall mshr miss latency
system.l2.overall_avg_mshr_miss_latency::.switch_cpus.inst 70091.836735                       # average overall mshr miss latency
system.l2.overall_avg_mshr_miss_latency::.switch_cpus.data 77050.196589                       # average overall mshr miss latency
system.l2.overall_avg_mshr_miss_latency::total 77047.178579                       # average overall mshr miss latency
system.l2.replacements                         110791                       # number of replacements
system.l2.WritebackDirty_hits::.writebacks        17108                       # number of WritebackDirty hits
system.l2.WritebackDirty_hits::total            17108                       # number of WritebackDirty hits
system.l2.WritebackDirty_accesses::.writebacks        17108                       # number of WritebackDirty accesses(hits+misses)
system.l2.WritebackDirty_accesses::total        17108                       # number of WritebackDirty accesses(hits+misses)
system.l2.CleanEvict_mshr_misses::.writebacks        29114                       # number of CleanEvict MSHR misses
system.l2.CleanEvict_mshr_misses::total         29114                       # number of CleanEvict MSHR misses
system.l2.CleanEvict_mshr_miss_rate::.writebacks          inf                       # mshr miss rate for CleanEvict accesses
system.l2.CleanEvict_mshr_miss_rate::total          inf                       # mshr miss rate for CleanEvict accesses
system.l2.ReadExReq_hits::.switch_cpus.data          529                       # number of ReadExReq hits
system.l2.ReadExReq_hits::total                   529                       # number of ReadExReq hits
system.l2.ReadExReq_misses::.switch_cpus.data           28                       # number of ReadExReq misses
system.l2.ReadExReq_misses::total                  28                       # number of ReadExReq misses
system.l2.ReadExReq_miss_latency::.switch_cpus.data      1778000                       # number of ReadExReq miss cycles
system.l2.ReadExReq_miss_latency::total       1778000                       # number of ReadExReq miss cycles
system.l2.ReadExReq_accesses::.switch_cpus.data          557                       # number of ReadExReq accesses(hits+misses)
system.l2.ReadExReq_accesses::total               557                       # number of ReadExReq accesses(hits+misses)
system.l2.ReadExReq_miss_rate::.switch_cpus.data     0.050269                       # miss rate for ReadExReq accesses
system.l2.ReadExReq_miss_rate::total         0.050269                       # miss rate for ReadExReq accesses
system.l2.ReadExReq_avg_miss_latency::.switch_cpus.data        63500                       # average ReadExReq miss latency
system.l2.ReadExReq_avg_miss_latency::total        63500                       # average ReadExReq miss latency
system.l2.ReadExReq_mshr_misses::.switch_cpus.data           28                       # number of ReadExReq MSHR misses
system.l2.ReadExReq_mshr_misses::total             28                       # number of ReadExReq MSHR misses
system.l2.ReadExReq_mshr_miss_latency::.switch_cpus.data      1498000                       # number of ReadExReq MSHR miss cycles
system.l2.ReadExReq_mshr_miss_latency::total      1498000                       # number of ReadExReq MSHR miss cycles
system.l2.ReadExReq_mshr_miss_rate::.switch_cpus.data     0.050269                       # mshr miss rate for ReadExReq accesses
system.l2.ReadExReq_mshr_miss_rate::total     0.050269                       # mshr miss rate for ReadExReq accesses
system.l2.ReadExReq_avg_mshr_miss_latency::.switch_cpus.data        53500                       # average ReadExReq mshr miss latency
system.l2.ReadExReq_avg_mshr_miss_latency::total        53500                       # average ReadExReq mshr miss latency
system.l2.ReadCleanReq_misses::.cpu.inst            2                       # number of ReadCleanReq misses
system.l2.ReadCleanReq_misses::.switch_cpus.inst           49                       # number of ReadCleanReq misses
system.l2.ReadCleanReq_misses::total               51                       # number of ReadCleanReq misses
system.l2.ReadCleanReq_miss_latency::.switch_cpus.inst      3924500                       # number of ReadCleanReq miss cycles
system.l2.ReadCleanReq_miss_latency::total      3924500                       # number of ReadCleanReq miss cycles
system.l2.ReadCleanReq_accesses::.cpu.inst            2                       # number of ReadCleanReq accesses(hits+misses)
system.l2.ReadCleanReq_accesses::.switch_cpus.inst           49                       # number of ReadCleanReq accesses(hits+misses)
system.l2.ReadCleanReq_accesses::total             51                       # number of ReadCleanReq accesses(hits+misses)
system.l2.ReadCleanReq_miss_rate::.cpu.inst            1                       # miss rate for ReadCleanReq accesses
system.l2.ReadCleanReq_miss_rate::.switch_cpus.inst            1                       # miss rate for ReadCleanReq accesses
system.l2.ReadCleanReq_miss_rate::total             1                       # miss rate for ReadCleanReq accesses
system.l2.ReadCleanReq_avg_miss_latency::.switch_cpus.inst 80091.836735                       # average ReadCleanReq miss latency
system.l2.ReadCleanReq_avg_miss_latency::total 76950.980392                       # average ReadCleanReq miss latency
system.l2.ReadCleanReq_mshr_misses::.switch_cpus.inst           49                       # number of ReadCleanReq MSHR misses
system.l2.ReadCleanReq_mshr_misses::total           49                       # number of ReadCleanReq MSHR misses
system.l2.ReadCleanReq_mshr_miss_latency::.switch_cpus.inst      3434500                       # number of ReadCleanReq MSHR miss cycles
system.l2.ReadCleanReq_mshr_miss_latency::total      3434500                       # number of ReadCleanReq MSHR miss cycles
system.l2.ReadCleanReq_mshr_miss_rate::.switch_cpus.inst            1                       # mshr miss rate for ReadCleanReq accesses
system.l2.ReadCleanReq_mshr_miss_rate::total     0.960784                       # mshr miss rate for ReadCleanReq accesses
system.l2.ReadCleanReq_avg_mshr_miss_latency::.switch_cpus.inst 70091.836735                       # average ReadCleanReq mshr miss latency
system.l2.ReadCleanReq_avg_mshr_miss_latency::total 70091.836735                       # average ReadCleanReq mshr miss latency
system.l2.ReadSharedReq_hits::.switch_cpus.data       184185                       # number of ReadSharedReq hits
system.l2.ReadSharedReq_hits::total            184185                       # number of ReadSharedReq hits
system.l2.ReadSharedReq_misses::.cpu.data            2                       # number of ReadSharedReq misses
system.l2.ReadSharedReq_misses::.switch_cpus.data       112898                       # number of ReadSharedReq misses
system.l2.ReadSharedReq_misses::total          112900                       # number of ReadSharedReq misses
[...]
system.cpu.icache.tags.occ_task_id_percent::1024     0.113281                       # Percentage of cache occupancy per task id
system.cpu.icache.tags.tag_accesses          29836864                       # Number of tag accesses
system.cpu.icache.tags.data_accesses         29836864                       # Number of data accesses
system.cpu.dtb.walker.pwrStateResidencyTicks::UNDEFINED 926116782219000                       # Cumulative time (in ticks) in various power states
system.cpu.interrupts.clk_domain.clock           8000                       # Clock period in ticks
system.cpu.itb_walker_cache.pwrStateResidencyTicks::UNDEFINED 926116782219000                       # Cumulative time (in ticks) in various power states
system.cpu.itb_walker_cache.blocked_cycles::no_mshrs            0                       # number of cycles access was blocked
system.cpu.itb_walker_cache.blocked_cycles::no_targets            0                       # number of cycles access was blocked
system.cpu.itb_walker_cache.blocked::no_mshrs            0                       # number of cycles access was blocked
system.cpu.itb_walker_cache.blocked::no_targets            0                       # number of cycles access was blocked
system.cpu.itb_walker_cache.avg_blocked_cycles::no_mshrs          nan                       # average number of cycles each access was blocked
system.cpu.itb_walker_cache.avg_blocked_cycles::no_targets          nan                       # average number of cycles each access was blocked
system.cpu.itb_walker_cache.replacements            0                       # number of replacements
system.cpu.itb_walker_cache.tags.pwrStateResidencyTicks::UNDEFINED 926116782219000                       # Cumulative time (in ticks) in various power states
system.cpu.itb_walker_cache.tags.tagsinuse            0                       # Cycle average of tags in use
system.cpu.itb_walker_cache.tags.total_refs            0                       # Total number of references to valid blocks.
system.cpu.itb_walker_cache.tags.sampled_refs            0                       # Sample count of references to valid blocks.
system.cpu.itb_walker_cache.tags.avg_refs          nan                       # Average number of references to valid blocks.
system.cpu.itb_walker_cache.tags.warmup_cycle            0                       # Cycle when the warmup percentage was hit.
system.cpu.itb_walker_cache.tags.tag_accesses            0                       # Number of tag accesses
system.cpu.itb_walker_cache.tags.data_accesses            0                       # Number of data accesses
system.cpu.itb.walker.pwrStateResidencyTicks::UNDEFINED 926116782219000                       # Cumulative time (in ticks) in various power states
system.cpu.dtb_walker_cache.pwrStateResidencyTicks::UNDEFINED 926116782219000                       # Cumulative time (in ticks) in various power states
system.cpu.dtb_walker_cache.blocked_cycles::no_mshrs            0                       # number of cycles access was blocked
system.cpu.dtb_walker_cache.blocked_cycles::no_targets            0                       # number of cycles access was blocked
system.cpu.dtb_walker_cache.blocked::no_mshrs            0                       # number of cycles access was blocked
system.cpu.dtb_walker_cache.blocked::no_targets            0                       # number of cycles access was blocked
system.cpu.dtb_walker_cache.avg_blocked_cycles::no_mshrs          nan                       # average number of cycles each access was blocked
system.cpu.dtb_walker_cache.avg_blocked_cycles::no_targets          nan                       # average number of cycles each access was blocked
system.cpu.dtb_walker_cache.replacements            0                       # number of replacements
system.cpu.dtb_walker_cache.tags.pwrStateResidencyTicks::UNDEFINED 926116782219000                       # Cumulative time (in ticks) in various power states
system.cpu.dtb_walker_cache.tags.tagsinuse            0                       # Cycle average of tags in use
system.cpu.dtb_walker_cache.tags.total_refs            0                       # Total number of references to valid blocks.
system.cpu.dtb_walker_cache.tags.sampled_refs            0                       # Sample count of references to valid blocks.
system.cpu.dtb_walker_cache.tags.avg_refs          nan                       # Average number of references to valid blocks.
system.cpu.dtb_walker_cache.tags.warmup_cycle            0                       # Cycle when the warmup percentage was hit.
system.cpu.dtb_walker_cache.tags.tag_accesses            0                       # Number of tag accesses
system.cpu.dtb_walker_cache.tags.data_accesses            0                       # Number of data accesses
system.cpu.dcache.pwrStateResidencyTicks::UNDEFINED 926116782219000                       # Cumulative time (in ticks) in various power states
system.cpu.dcache.demand_hits::.switch_cpus.data     12185242                       # number of demand (read+write) hits
system.cpu.dcache.demand_hits::total         12185242                       # number of demand (read+write) hits
system.cpu.dcache.overall_hits::.switch_cpus.data     12185242                       # number of overall hits
system.cpu.dcache.overall_hits::total        12185242                       # number of overall hits
system.cpu.dcache.demand_misses::.cpu.data            2                       # number of demand (read+write) misses
system.cpu.dcache.demand_misses::.switch_cpus.data      1598760                       # number of demand (read+write) misses
system.cpu.dcache.demand_misses::total        1598762                       # number of demand (read+write) misses
system.cpu.dcache.overall_misses::.cpu.data            2                       # number of overall misses
system.cpu.dcache.overall_misses::.switch_cpus.data      1598760                       # number of overall misses
system.cpu.dcache.overall_misses::total       1598762                       # number of overall misses
system.cpu.dcache.demand_miss_latency::.switch_cpus.data 103532850496                       # number of demand (read+write) miss cycles
system.cpu.dcache.demand_miss_latency::total 103532850496                       # number of demand (read+write) miss cycles
system.cpu.dcache.overall_miss_latency::.switch_cpus.data 103532850496                       # number of overall miss cycles
system.cpu.dcache.overall_miss_latency::total 103532850496                       # number of overall miss cycles
system.cpu.dcache.demand_accesses::.cpu.data            2                       # number of demand (read+write) accesses
system.cpu.dcache.demand_accesses::.switch_cpus.data     13784002                       # number of demand (read+write) accesses
system.cpu.dcache.demand_accesses::total     13784004                       # number of demand (read+write) accesses
system.cpu.dcache.overall_accesses::.cpu.data            2                       # number of overall (read+write) accesses
system.cpu.dcache.overall_accesses::.switch_cpus.data     13784002                       # number of overall (read+write) accesses
system.cpu.dcache.overall_accesses::total     13784004                       # number of overall (read+write) accesses
system.cpu.dcache.demand_miss_rate::.cpu.data            1                       # miss rate for demand accesses
system.cpu.dcache.demand_miss_rate::.switch_cpus.data     0.115987                       # miss rate for demand accesses
system.cpu.dcache.demand_miss_rate::total     0.115987                       # miss rate for demand accesses
system.cpu.dcache.overall_miss_rate::.cpu.data            1                       # miss rate for overall accesses
system.cpu.dcache.overall_miss_rate::.switch_cpus.data     0.115987                       # miss rate for overall accesses
system.cpu.dcache.overall_miss_rate::total     0.115987                       # miss rate for overall accesses
system.cpu.dcache.demand_avg_miss_latency::.switch_cpus.data 64758.219180                       # average overall miss latency
system.cpu.dcache.demand_avg_miss_latency::total 64758.138169                       # average overall miss latency
system.cpu.dcache.overall_avg_miss_latency::.switch_cpus.data 64758.219180                       # average overall miss latency
system.cpu.dcache.overall_avg_miss_latency::total 64758.138169                       # average overall miss latency
system.cpu.dcache.blocked_cycles::no_mshrs     10903894                       # number of cycles access was blocked
system.cpu.dcache.blocked_cycles::no_targets         1724                       # number of cycles access was blocked
system.cpu.dcache.blocked::no_mshrs            316868                       # number of cycles access was blocked
system.cpu.dcache.blocked::no_targets              54                       # number of cycles access was blocked
system.cpu.dcache.avg_blocked_cycles::no_mshrs    34.411471                       # average number of cycles each access was blocked
system.cpu.dcache.avg_blocked_cycles::no_targets    31.925926                       # average number of cycles each access was blocked
system.cpu.dcache.writebacks::.writebacks       530820                       # number of writebacks
system.cpu.dcache.writebacks::total            530820                       # number of writebacks
system.cpu.dcache.demand_mshr_hits::.switch_cpus.data       299671                       # number of demand (read+write) MSHR hits
system.cpu.dcache.demand_mshr_hits::total       299671                       # number of demand (read+write) MSHR hits
system.cpu.dcache.overall_mshr_hits::.switch_cpus.data       299671                       # number of overall MSHR hits
system.cpu.dcache.overall_mshr_hits::total       299671                       # number of overall MSHR hits
system.cpu.dcache.demand_mshr_misses::.switch_cpus.data      1299089                       # number of demand (read+write) MSHR misses
system.cpu.dcache.demand_mshr_misses::total      1299089                       # number of demand (read+write) MSHR misses
system.cpu.dcache.overall_mshr_misses::.switch_cpus.data      1299089                       # number of overall MSHR misses
system.cpu.dcache.overall_mshr_misses::total      1299089                       # number of overall MSHR misses
system.cpu.dcache.demand_mshr_miss_latency::.switch_cpus.data  89960289996                       # number of demand (read+write) MSHR miss cycles
system.cpu.dcache.demand_mshr_miss_latency::total  89960289996                       # number of demand (read+write) MSHR miss cycles
system.cpu.dcache.overall_mshr_miss_latency::.switch_cpus.data  89960289996                       # number of overall MSHR miss cycles
system.cpu.dcache.overall_mshr_miss_latency::total  89960289996                       # number of overall MSHR miss cycles
system.cpu.dcache.demand_mshr_miss_rate::.switch_cpus.data     0.094246                       # mshr miss rate for demand accesses
system.cpu.dcache.demand_mshr_miss_rate::total     0.094246                       # mshr miss rate for demand accesses
system.cpu.dcache.overall_mshr_miss_rate::.switch_cpus.data     0.094246                       # mshr miss rate for overall accesses
system.cpu.dcache.overall_mshr_miss_rate::total     0.094246                       # mshr miss rate for overall accesses
system.cpu.dcache.demand_avg_mshr_miss_latency::.switch_cpus.data 69248.750467                       # average overall mshr miss latency
system.cpu.dcache.demand_avg_mshr_miss_latency::total 69248.750467                       # average overall mshr miss latency
system.cpu.dcache.overall_avg_mshr_miss_latency::.switch_cpus.data 69248.750467                       # average overall mshr miss latency
system.cpu.dcache.overall_avg_mshr_miss_latency::total 69248.750467                       # average overall mshr miss latency
system.cpu.dcache.replacements                1298067                       # number of replacements
system.cpu.dcache.ReadReq_hits::.switch_cpus.data     10184650                       # number of ReadReq hits
system.cpu.dcache.ReadReq_hits::total        10184650                       # number of ReadReq hits
system.cpu.dcache.ReadReq_misses::.cpu.data            2                       # number of ReadReq misses
system.cpu.dcache.ReadReq_misses::.switch_cpus.data      1113624                       # number of ReadReq misses
system.cpu.dcache.ReadReq_misses::total       1113626                       # number of ReadReq misses
system.cpu.dcache.ReadReq_miss_latency::.switch_cpus.data  57911223500                       # number of ReadReq miss cycles
system.cpu.dcache.ReadReq_miss_latency::total  57911223500                       # number of ReadReq miss cycles
system.cpu.dcache.ReadReq_accesses::.cpu.data            2                       # number of ReadReq accesses(hits+misses)
system.cpu.dcache.ReadReq_accesses::.switch_cpus.data     11298274                       # number of ReadReq accesses(hits+misses)
system.cpu.dcache.ReadReq_accesses::total     11298276                       # number of ReadReq accesses(hits+misses)
system.cpu.dcache.ReadReq_miss_rate::.cpu.data            1                       # miss rate for ReadReq accesses
system.cpu.dcache.ReadReq_miss_rate::.switch_cpus.data     0.098566                       # miss rate for ReadReq accesses
system.cpu.dcache.ReadReq_miss_rate::total     0.098566                       # miss rate for ReadReq accesses
system.cpu.dcache.ReadReq_avg_miss_latency::.switch_cpus.data 52002.492313                       # average ReadReq miss latency
system.cpu.dcache.ReadReq_avg_miss_latency::total 52002.398920                       # average ReadReq miss latency
system.cpu.dcache.ReadReq_mshr_hits::.switch_cpus.data       299664                       # number of ReadReq MSHR hits
system.cpu.dcache.ReadReq_mshr_hits::total       299664                       # number of ReadReq MSHR hits
system.cpu.dcache.ReadReq_mshr_misses::.switch_cpus.data       813960                       # number of ReadReq MSHR misses
system.cpu.dcache.ReadReq_mshr_misses::total       813960                       # number of ReadReq MSHR misses
system.cpu.dcache.ReadReq_mshr_miss_latency::.switch_cpus.data  44823892000                       # number of ReadReq MSHR miss cycles
system.cpu.dcache.ReadReq_mshr_miss_latency::total  44823892000                       # number of ReadReq MSHR miss cycles
system.cpu.dcache.ReadReq_mshr_miss_rate::.switch_cpus.data     0.072043                       # mshr miss rate for ReadReq accesses
system.cpu.dcache.ReadReq_mshr_miss_rate::total     0.072043                       # mshr miss rate for ReadReq accesses
system.cpu.dcache.ReadReq_avg_mshr_miss_latency::.switch_cpus.data 55068.912477                       # average ReadReq mshr miss latency
system.cpu.dcache.ReadReq_avg_mshr_miss_latency::total 55068.912477                       # average ReadReq mshr miss latency
system.cpu.dcache.WriteReq_hits::.switch_cpus.data      2000592                       # number of WriteReq hits
system.cpu.dcache.WriteReq_hits::total        2000592                       # number of WriteReq hits
system.cpu.dcache.WriteReq_misses::.switch_cpus.data       485136                       # number of WriteReq misses
system.cpu.dcache.WriteReq_misses::total       485136                       # number of WriteReq misses
system.cpu.dcache.WriteReq_miss_latency::.switch_cpus.data  45621626996                       # number of WriteReq miss cycles
system.cpu.dcache.WriteReq_miss_latency::total  45621626996                       # number of WriteReq miss cycles
system.cpu.dcache.WriteReq_accesses::.switch_cpus.data      2485728                       # number of WriteReq accesses(hits+misses)
system.cpu.dcache.WriteReq_accesses::total      2485728                       # number of WriteReq accesses(hits+misses)
system.cpu.dcache.WriteReq_miss_rate::.switch_cpus.data     0.195169                       # miss rate for WriteReq accesses
system.cpu.dcache.WriteReq_miss_rate::total     0.195169                       # miss rate for WriteReq accesses
system.cpu.dcache.WriteReq_avg_miss_latency::.switch_cpus.data 94038.840647                       # average WriteReq miss latency
system.cpu.dcache.WriteReq_avg_miss_latency::total 94038.840647                       # average WriteReq miss latency
system.cpu.dcache.WriteReq_mshr_hits::.switch_cpus.data            7                       # number of WriteReq MSHR hits
system.cpu.dcache.WriteReq_mshr_hits::total            7                       # number of WriteReq MSHR hits
system.cpu.dcache.WriteReq_mshr_misses::.switch_cpus.data       485129                       # number of WriteReq MSHR misses
system.cpu.dcache.WriteReq_mshr_misses::total       485129                       # number of WriteReq MSHR misses
system.cpu.dcache.WriteReq_mshr_miss_latency::.switch_cpus.data  45136397996                       # number of WriteReq MSHR miss cycles
system.cpu.dcache.WriteReq_mshr_miss_latency::total  45136397996                       # number of WriteReq MSHR miss cycles
system.cpu.dcache.WriteReq_mshr_miss_rate::.switch_cpus.data     0.195166                       # mshr miss rate for WriteReq accesses
system.cpu.dcache.WriteReq_mshr_miss_rate::total     0.195166                       # mshr miss rate for WriteReq accesses
system.cpu.dcache.WriteReq_avg_mshr_miss_latency::.switch_cpus.data 93039.991417                       # average WriteReq mshr miss latency
system.cpu.dcache.WriteReq_avg_mshr_miss_latency::total 93039.991417                       # average WriteReq mshr miss latency
system.cpu.dcache.tags.pwrStateResidencyTicks::UNDEFINED 926116782219000                       # Cumulative time (in ticks) in various power states
system.cpu.dcache.tags.tagsinuse             0.085290                       # Cycle average of tags in use
system.cpu.dcache.tags.total_refs            13484333                       # Total number of references to valid blocks.
system.cpu.dcache.tags.sampled_refs           1299091                       # Sample count of references to valid blocks.
system.cpu.dcache.tags.avg_refs             10.379822                       # Average number of references to valid blocks.
system.cpu.dcache.tags.warmup_cycle      926039603283000                       # Cycle when the warmup percentage was hit.
system.cpu.dcache.tags.occ_blocks::.cpu.data     0.000000                       # Average occupied blocks per requestor
system.cpu.dcache.tags.occ_blocks::.switch_cpus.data     0.085290                       # Average occupied blocks per requestor
system.cpu.dcache.tags.occ_percent::.cpu.data     0.000000                       # Average percentage of cache occupancy
system.cpu.dcache.tags.occ_percent::.switch_cpus.data     0.000083                       # Average percentage of cache occupancy
system.cpu.dcache.tags.occ_percent::total     0.000083                       # Average percentage of cache occupancy
system.cpu.dcache.tags.occ_task_id_blocks::1024         1024                       # Occupied blocks per task id
system.cpu.dcache.tags.age_task_id_blocks_1024::0          120                       # Occupied blocks per task id
system.cpu.dcache.tags.age_task_id_blocks_1024::1          728                       # Occupied blocks per task id
system.cpu.dcache.tags.age_task_id_blocks_1024::2          172                       # Occupied blocks per task id
system.cpu.dcache.tags.age_task_id_blocks_1024::3            4                       # Occupied blocks per task id
system.cpu.dcache.tags.occ_task_id_percent::1024            1                       # Percentage of cache occupancy per task id
system.cpu.dcache.tags.tag_accesses          28867099                       # Number of tag accesses
system.cpu.dcache.tags.data_accesses         28867099                       # Number of data accesses

---------- End Simulation Statistics   ----------
