
---------- Begin Simulation Statistics ----------
final_tick                               371669863090500                       # Number of ticks from beginning of simulation (restored from checkpoints and never reset)
host_inst_rate                                  32116                       # Simulator instruction rate (inst/s)
host_mem_usage                                 897640                       # Number of bytes of host memory used
host_op_rate                                    71859                       # Simulator op (including micro ops) rate (op/s)
host_seconds                                   311.37                       # Real time elapsed on the host
host_tick_rate                               28160120                       # Simulator tick rate (ticks/s)
sim_freq                                 1000000000000                       # Frequency of simulated ticks
sim_insts                                    10000006                       # Number of instructions simulated
sim_ops                                      22374673                       # Number of ops (including micro ops) simulated
sim_seconds                                  0.008768                       # Number of seconds simulated
sim_ticks                                  8768208000                       # Number of ticks simulated
system.cpu.committedInsts                           5                       # Number of instructions committed
system.cpu.committedOps                            17                       # Number of ops (including micro ops) committed
system.cpu.dtb.rdAccesses                           8                       # TLB accesses on read requests
system.cpu.dtb.rdMisses                             0                       # TLB misses on read requests
system.cpu.dtb.wrAccesses                           0                       # TLB accesses on write requests
system.cpu.dtb.wrMisses                             0                       # TLB misses on write requests
system.cpu.idle_fraction                            0                       # Percentage of idle cycles
system.cpu.itb.rdAccesses                           0                       # TLB accesses on read requests
system.cpu.itb.rdMisses                             0                       # TLB misses on read requests
system.cpu.itb.wrAccesses                          10                       # TLB accesses on write requests
system.cpu.itb.wrMisses                             0                       # TLB misses on write requests
system.cpu.not_idle_fraction                        1                       # Percentage of non-idle cycles
system.cpu.numCycles                               22                       # number of cpu cycles simulated
system.cpu.numWorkItemsCompleted                    0                       # number of work items this cpu completed
system.cpu.numWorkItemsStarted                      0                       # number of work items this cpu started
system.cpu.num_busy_cycles                         22                       # Number of busy cycles
system.cpu.num_conditional_control_insts            0                       # number of instructions that are conditional controls
system.cpu.num_fp_alu_accesses                     16                       # Number of float alu accesses
system.cpu.num_fp_insts                            16                       # number of float instructions
system.cpu.num_fp_register_reads                   24                       # number of times the floating registers were read
system.cpu.num_fp_register_writes                  16                       # number of times the floating registers were written
system.cpu.num_func_calls                           0                       # number of times a function call or return occured
system.cpu.num_idle_cycles                          0                       # Number of idle cycles
system.cpu.num_int_alu_accesses                     9                       # Number of integer alu accesses
system.cpu.num_int_insts                            9                       # number of integer instructions
system.cpu.num_int_register_reads                  25                       # number of times the integer registers were read
system.cpu.num_int_register_writes                  1                       # number of times the integer registers were written
system.cpu.num_load_insts                           8                       # Number of load instructions
system.cpu.num_mem_refs                             8                       # number of memory refs
system.cpu.num_store_insts                          0                       # Number of store instructions
system.cpu.num_vec_alu_accesses                     0                       # Number of vector alu accesses
system.cpu.num_vec_insts                            0                       # number of vector instructions
system.cpu.num_vec_register_reads                   0                       # number of times the vector registers were read
system.cpu.num_vec_register_writes                  0                       # number of times the vector registers were written
system.cpu.op_class::No_OpClass                     0      0.00%      0.00% # Class of executed instruction
system.cpu.op_class::IntAlu                         1      5.88%      5.88% # Class of executed instruction
system.cpu.op_class::IntMult                        0      0.00%      5.88% # Class of executed instruction
system.cpu.op_class::IntDiv                         0      0.00%      5.88% # Class of executed instruction
system.cpu.op_class::FloatAdd                       0      0.00%      5.88% # Class of executed instruction
system.cpu.op_class::FloatCmp                       0      0.00%      5.88% # Class of executed instruction
system.cpu.op_class::FloatCvt                       0      0.00%      5.88% # Class of executed instruction
system.cpu.op_class::FloatMult                      0      0.00%      5.88% # Class of executed instruction
system.cpu.op_class::FloatMultAcc                   0      0.00%      5.88% # Class of executed instruction
system.cpu.op_class::FloatDiv                       0      0.00%      5.88% # Class of executed instruction
system.cpu.op_class::FloatMisc                      0      0.00%      5.88% # Class of executed instruction
system.cpu.op_class::FloatSqrt                      0      0.00%      5.88% # Class of executed instruction
system.cpu.op_class::SimdAdd                        0      0.00%      5.88% # Class of executed instruction
system.cpu.op_class::SimdAddAcc                     0      0.00%      5.88% # Class of executed instruction
system.cpu.op_class::SimdAlu                        0      0.00%      5.88% # Class of executed instruction
system.cpu.op_class::SimdCmp                        0      0.00%      5.88% # Class of executed instruction
system.cpu.op_class::SimdCvt                        0      0.00%      5.88% # Class of executed instruction
system.cpu.op_class::SimdMisc                       0      0.00%      5.88% # Class of executed instruction
system.cpu.op_class::SimdMult                       0      0.00%      5.88% # Class of executed instruction
system.cpu.op_class::SimdMultAcc                    0      0.00%      5.88% # Class of executed instruction
system.cpu.op_class::SimdShift                      0      0.00%      5.88% # Class of executed instruction
system.cpu.op_class::SimdShiftAcc                   0      0.00%      5.88% # Class of executed instruction
system.cpu.op_class::SimdDiv                        0      0.00%      5.88% # Class of executed instruction
system.cpu.op_class::SimdSqrt                       0      0.00%      5.88% # Class of executed instruction
system.cpu.op_class::SimdFloatAdd                   4     23.53%     29.41% # Class of executed instruction
system.cpu.op_class::SimdFloatAlu                   0      0.00%     29.41% # Class of executed instruction
system.cpu.op_class::SimdFloatCmp                   0      0.00%     29.41% # Class of executed instruction
system.cpu.op_class::SimdFloatCvt                   0      0.00%     29.41% # Class of executed instruction
system.cpu.op_class::SimdFloatDiv                   0      0.00%     29.41% # Class of executed instruction
system.cpu.op_class::SimdFloatMisc                  0      0.00%     29.41% # Class of executed instruction
system.cpu.op_class::SimdFloatMult                  4     23.53%     52.94% # Class of executed instruction
system.cpu.op_class::SimdFloatMultAcc               0      0.00%     52.94% # Class of executed instruction
system.cpu.op_class::SimdFloatSqrt                  0      0.00%     52.94% # Class of executed instruction
system.cpu.op_class::SimdReduceAdd                  0      0.00%     52.94% # Class of executed instruction
system.cpu.op_class::SimdReduceAlu                  0      0.00%     52.94% # Class of executed instruction
system.cpu.op_class::SimdReduceCmp                  0      0.00%     52.94% # Class of executed instruction
system.cpu.op_class::SimdFloatReduceAdd             0      0.00%     52.94% # Class of executed instruction
system.cpu.op_class::SimdFloatReduceCmp             0      0.00%     52.94% # Class of executed instruction
system.cpu.op_class::SimdAes                        0      0.00%     52.94% # Class of executed instruction
system.cpu.op_class::SimdAesMix                     0      0.00%     52.94% # Class of executed instruction
system.cpu.op_class::SimdSha1Hash                   0      0.00%     52.94% # Class of executed instruction
system.cpu.op_class::SimdSha1Hash2                  0      0.00%     52.94% # Class of executed instruction
system.cpu.op_class::SimdSha256Hash                 0      0.00%     52.94% # Class of executed instruction
system.cpu.op_class::SimdSha256Hash2                0      0.00%     52.94% # Class of executed instruction
system.cpu.op_class::SimdShaSigma2                  0      0.00%     52.94% # Class of executed instruction
system.cpu.op_class::SimdShaSigma3                  0      0.00%     52.94% # Class of executed instruction
system.cpu.op_class::SimdPredAlu                    0      0.00%     52.94% # Class of executed instruction
system.cpu.op_class::MemRead                        0      0.00%     52.94% # Class of executed instruction
system.cpu.op_class::MemWrite                       0      0.00%     52.94% # Class of executed instruction
system.cpu.op_class::FloatMemRead                   8     47.06%    100.00% # Class of executed instruction
system.cpu.op_class::FloatMemWrite                  0      0.00%    100.00% # Class of executed instruction
system.cpu.op_class::IprAccess                      0      0.00%    100.00% # Class of executed instruction
system.cpu.op_class::InstPrefetch                   0      0.00%    100.00% # Class of executed instruction
system.cpu.op_class::total                         17                       # Class of executed instruction
system.cpu.workload.numSyscalls                     5                       # Number of system calls
system.membus.snoop_filter.hit_multi_requests            0                       # Number of requests hitting in the snoop filter with multiple (>1) holders of the requested data.
system.membus.snoop_filter.hit_multi_snoops            0                       # Number of snoops hitting in the snoop filter with multiple (>1) holders of the requested data.
system.membus.snoop_filter.hit_single_requests       107935                       # Number of requests hitting in the snoop filter with a single holder of the requested data.
system.membus.snoop_filter.hit_single_snoops            0                       # Number of snoops hitting in the snoop filter with a single holder of the requested data.
system.membus.snoop_filter.tot_requests        218810                       # Total number of requests made to the snoop filter.
system.membus.snoop_filter.tot_snoops               0                       # Total number of snoops made to the snoop filter.
system.switch_cpus.branchPred.BTBCorrect            0                       # Number of correct BTB predictions (this stat may not work properly.
system.switch_cpus.branchPred.BTBHitPct      0.000000                       # BTB Hit Percentage
system.switch_cpus.branchPred.BTBHits               0                       # Number of BTB hits
system.switch_cpus.branchPred.BTBLookups       124350                       # Number of BTB lookups
system.switch_cpus.branchPred.RASInCorrect           24                       # Number of incorrect RAS predictions.
system.switch_cpus.branchPred.condIncorrect         6195                       # Number of conditional branches incorrect
system.switch_cpus.branchPred.condPredicted       145083                       # Number of conditional branches predicted
system.switch_cpus.branchPred.indirectHits        69540                       # Number of indirect target hits.
system.switch_cpus.branchPred.indirectLookups       124350                       # Number of indirect predictor lookups.
system.switch_cpus.branchPred.indirectMisses        54810                       # Number of indirect misses.
system.switch_cpus.branchPred.lookups          175500                       # Number of BP lookups
system.switch_cpus.branchPred.usedRAS           17425                       # Number of times the RAS was used to get a target.
system.switch_cpus.branchPredindirectMispredicted         3857                       # Number of mispredicted indirect branches.
system.switch_cpus.cc_regfile_reads            714545                       # number of cc regfile reads
system.switch_cpus.cc_regfile_writes           609582                       # number of cc regfile writes
system.switch_cpus.commit.amos                      0                       # Number of atomic instructions committed
system.switch_cpus.commit.branchMispredicts         6389                       # The number of times a branch was mispredicted
system.switch_cpus.commit.branches             106288                       # Number of branches committed
system.switch_cpus.commit.bw_lim_events       1541607                       # number cycles where commit BW limit reached
system.switch_cpus.commit.commitNonSpecStalls          405                       # The number of times commit has been forced to stall to communicate backwards
system.switch_cpus.commit.commitSquashedInsts       772774                       # The number of squashed insts skipped by commit
system.switch_cpus.commit.committedInsts     10000001                       # Number of instructions committed
system.switch_cpus.commit.committedOps       22374656                       # Number of ops (including micro ops) committed
system.switch_cpus.commit.committed_per_cycle::samples     17311200                       # Number of insts commited each cycle
system.switch_cpus.commit.committed_per_cycle::mean     1.292496                       # Number of insts commited each cycle
system.switch_cpus.commit.committed_per_cycle::stdev     2.552983                       # Number of insts commited each cycle
system.switch_cpus.commit.committed_per_cycle::underflows            0      0.00%      0.00% # Number of insts commited each cycle
system.switch_cpus.commit.committed_per_cycle::0     12607723     72.83%     72.83% # Number of insts commited each cycle
system.switch_cpus.commit.committed_per_cycle::1       713842      4.12%     76.95% # Number of insts commited each cycle
system.switch_cpus.commit.committed_per_cycle::2       836762      4.83%     81.79% # Number of insts commited each cycle
system.switch_cpus.commit.committed_per_cycle::3       279542      1.61%     83.40% # Number of insts commited each cycle
system.switch_cpus.commit.committed_per_cycle::4       552867      3.19%     86.60% # Number of insts commited each cycle
system.switch_cpus.commit.committed_per_cycle::5       259419      1.50%     88.09% # Number of insts commited each cycle
system.switch_cpus.commit.committed_per_cycle::6       328821      1.90%     89.99% # Number of insts commited each cycle
system.switch_cpus.commit.committed_per_cycle::7       190617      1.10%     91.09% # Number of insts commited each cycle
system.switch_cpus.commit.committed_per_cycle::8      1541607      8.91%    100.00% # Number of insts commited each cycle
system.switch_cpus.commit.committed_per_cycle::overflows            0      0.00%    100.00% # Number of insts commited each cycle
system.switch_cpus.commit.committed_per_cycle::min_value            0                       # Number of insts commited each cycle
system.switch_cpus.commit.committed_per_cycle::max_value            8                       # Number of insts commited each cycle
system.switch_cpus.commit.committed_per_cycle::total     17311200                       # Number of insts commited each cycle
system.switch_cpus.commit.fp_insts           20559192                       # Number of committed floating point instructions.
system.switch_cpus.commit.function_calls         8242                       # Number of function calls committed.
system.switch_cpus.commit.int_insts          10716167                       # Number of committed integer instructions.
system.switch_cpus.commit.loads               7506752                       # Number of loads committed
system.switch_cpus.commit.membars                   0                       # Number of memory barriers committed
system.switch_cpus.commit.op_class_0::No_OpClass         3248      0.01%      0.01% # Class of committed instruction
system.switch_cpus.commit.op_class_0::IntAlu      3440241     15.38%     15.39% # Class of committed instruction
system.switch_cpus.commit.op_class_0::IntMult          647      0.00%     15.39% # Class of committed instruction
system.switch_cpus.commit.op_class_0::IntDiv          133      0.00%     15.39% # Class of committed instruction
system.switch_cpus.commit.op_class_0::FloatAdd          604      0.00%     15.40% # Class of committed instruction
system.switch_cpus.commit.op_class_0::FloatCmp            0      0.00%     15.40% # Class of committed instruction
system.switch_cpus.commit.op_class_0::FloatCvt            0      0.00%     15.40% # Class of committed instruction
system.switch_cpus.commit.op_class_0::FloatMult            0      0.00%     15.40% # Class of committed instruction
system.switch_cpus.commit.op_class_0::FloatMultAcc            0      0.00%     15.40% # Class of committed instruction
system.switch_cpus.commit.op_class_0::FloatDiv            0      0.00%     15.40% # Class of committed instruction
system.switch_cpus.commit.op_class_0::FloatMisc            0      0.00%     15.40% # Class of committed instruction
system.switch_cpus.commit.op_class_0::FloatSqrt            0      0.00%     15.40% # Class of committed instruction
system.switch_cpus.commit.op_class_0::SimdAdd          746      0.00%     15.40% # Class of committed instruction
system.switch_cpus.commit.op_class_0::SimdAddAcc            0      0.00%     15.40% # Class of committed instruction
system.switch_cpus.commit.op_class_0::SimdAlu        55789      0.25%     15.65% # Class of committed instruction
system.switch_cpus.commit.op_class_0::SimdCmp            0      0.00%     15.65% # Class of committed instruction
system.switch_cpus.commit.op_class_0::SimdCvt         4810      0.02%     15.67% # Class of committed instruction
system.switch_cpus.commit.op_class_0::SimdMisc         4991      0.02%     15.69% # Class of committed instruction
system.switch_cpus.commit.op_class_0::SimdMult            0      0.00%     15.69% # Class of committed instruction
system.switch_cpus.commit.op_class_0::SimdMultAcc            0      0.00%     15.69% # Class of committed instruction
system.switch_cpus.commit.op_class_0::SimdShift           32      0.00%     15.69% # Class of committed instruction
system.switch_cpus.commit.op_class_0::SimdShiftAcc            0      0.00%     15.69% # Class of committed instruction
system.switch_cpus.commit.op_class_0::SimdDiv            0      0.00%     15.69% # Class of committed instruction
system.switch_cpus.commit.op_class_0::SimdSqrt            0      0.00%     15.69% # Class of committed instruction
system.switch_cpus.commit.op_class_0::SimdFloatAdd      5262290     23.52%     39.21% # Class of committed instruction
system.switch_cpus.commit.op_class_0::SimdFloatAlu            0      0.00%     39.21% # Class of committed instruction
system.switch_cpus.commit.op_class_0::SimdFloatCmp            0      0.00%     39.21% # Class of committed instruction
system.switch_cpus.commit.op_class_0::SimdFloatCvt            0      0.00%     39.21% # Class of committed instruction
system.switch_cpus.commit.op_class_0::SimdFloatDiv        10955      0.05%     39.26% # Class of committed instruction
system.switch_cpus.commit.op_class_0::SimdFloatMisc            0      0.00%     39.26% # Class of committed instruction
system.switch_cpus.commit.op_class_0::SimdFloatMult      3855430     17.23%     56.49% # Class of committed instruction
system.switch_cpus.commit.op_class_0::SimdFloatMultAcc            0      0.00%     56.49% # Class of committed instruction
system.switch_cpus.commit.op_class_0::SimdFloatSqrt            0      0.00%     56.49% # Class of committed instruction
system.switch_cpus.commit.op_class_0::SimdReduceAdd            0      0.00%     56.49% # Class of committed instruction
system.switch_cpus.commit.op_class_0::SimdReduceAlu            0      0.00%     56.49% # Class of committed instruction
system.switch_cpus.commit.op_class_0::SimdReduceCmp            0      0.00%     56.49% # Class of committed instruction
system.switch_cpus.commit.op_class_0::SimdFloatReduceAdd            0      0.00%     56.49% # Class of committed instruction
system.switch_cpus.commit.op_class_0::SimdFloatReduceCmp            0      0.00%     56.49% # Class of committed instruction
system.switch_cpus.commit.op_class_0::SimdAes            0      0.00%     56.49% # Class of committed instruction
system.switch_cpus.commit.op_class_0::SimdAesMix            0      0.00%     56.49% # Class of committed instruction
system.switch_cpus.commit.op_class_0::SimdSha1Hash            0      0.00%     56.49% # Class of committed instruction
system.switch_cpus.commit.op_class_0::SimdSha1Hash2            0      0.00%     56.49% # Class of committed instruction
system.switch_cpus.commit.op_class_0::SimdSha256Hash            0      0.00%     56.49% # Class of committed instruction
system.switch_cpus.commit.op_class_0::SimdSha256Hash2            0      0.00%     56.49% # Class of committed instruction
system.switch_cpus.commit.op_class_0::SimdShaSigma2            0      0.00%     56.49% # Class of committed instruction
system.switch_cpus.commit.op_class_0::SimdShaSigma3            0      0.00%     56.49% # Class of committed instruction
system.switch_cpus.commit.op_class_0::SimdPredAlu            0      0.00%     56.49% # Class of committed instruction
system.switch_cpus.commit.op_class_0::MemRead       756767      3.38%     59.87% # Class of committed instruction
system.switch_cpus.commit.op_class_0::MemWrite        77584      0.35%     60.22% # Class of committed instruction
system.switch_cpus.commit.op_class_0::FloatMemRead      6749985     30.17%     90.39% # Class of committed instruction
system.switch_cpus.commit.op_class_0::FloatMemWrite      2150404      9.61%    100.00% # Class of committed instruction
system.switch_cpus.commit.op_class_0::IprAccess            0      0.00%    100.00% # Class of committed instruction
system.switch_cpus.commit.op_class_0::InstPrefetch            0      0.00%    100.00% # Class of committed instruction
system.switch_cpus.commit.op_class_0::total     22374656                       # Class of committed instruction
system.switch_cpus.commit.refs                9734740                       # Number of memory references committed
system.switch_cpus.commit.swp_count                 0                       # Number of s/w prefetches committed
system.switch_cpus.commit.vec_insts                 0                       # Number of committed Vector instructions.
system.switch_cpus.committedInsts            10000001                       # Number of Instructions Simulated
system.switch_cpus.committedOps              22374656                       # Number of Ops (including micro ops) Simulated
system.switch_cpus.cpi                       1.753639                       # CPI: Cycles Per Instruction
system.switch_cpus.cpi_total                 1.753639                       # CPI: Total CPI of All Threads
system.switch_cpus.decode.BlockedCycles      13407705                       # Number of cycles decode is blocked
system.switch_cpus.decode.DecodedInsts       23419812                       # Number of instructions handled by decode
system.switch_cpus.decode.IdleCycles           839401                       # Number of cycles decode is idle
system.switch_cpus.decode.RunCycles           2541555                       # Number of cycles decode is running
system.switch_cpus.decode.SquashCycles          12986                       # Number of cycles decode is squashing
system.switch_cpus.decode.UnblockCycles        613865                       # Number of cycles decode is unblocking
system.switch_cpus.dtb.rdAccesses             7692705                       # TLB accesses on read requests
system.switch_cpus.dtb.rdMisses                  1866                       # TLB misses on read requests
system.switch_cpus.dtb.wrAccesses             2377356                       # TLB accesses on write requests
system.switch_cpus.dtb.wrMisses                   704                       # TLB misses on write requests
system.switch_cpus.fetch.Branches              175500                       # Number of branches that fetch encountered
system.switch_cpus.fetch.CacheLines           1120572                       # Number of cache lines fetched
system.switch_cpus.fetch.Cycles              16199034                       # Number of cycles fetch has run and was not squashing or blocked
system.switch_cpus.fetch.IcacheSquashes          2022                       # Number of outstanding Icache misses that were squashed
system.switch_cpus.fetch.IcacheWaitRetryStallCycles           55                       # Number of stall cycles due to full MSHR
system.switch_cpus.fetch.Insts               10735604                       # Number of instructions fetch has processed
system.switch_cpus.fetch.MiscStallCycles          258                       # Number of cycles fetch has spent waiting on interrupts, or bad addresses, or out of MSHRs
system.switch_cpus.fetch.PendingTrapStallCycles         1318                       # Number of stall cycles due to pending traps
system.switch_cpus.fetch.SquashCycles           25972                       # Number of cycles fetch has spent squashing
system.switch_cpus.fetch.branchRate          0.010008                       # Number of branch fetches per cycle
system.switch_cpus.fetch.icacheStallCycles      1202198                       # Number of cycles fetch is stalled on an Icache miss
system.switch_cpus.fetch.predictedBranches        86965                       # Number of branches that fetch has predicted taken
system.switch_cpus.fetch.rate                0.612190                       # Number of inst fetches per cycle
system.switch_cpus.fetch.rateDist::samples     17415849                       # Number of instructions fetched each cycle (Total)
system.switch_cpus.fetch.rateDist::mean      1.360947                       # Number of instructions fetched each cycle (Total)
system.switch_cpus.fetch.rateDist::stdev     2.864676                       # Number of instructions fetched each cycle (Total)
system.switch_cpus.fetch.rateDist::underflows            0      0.00%      0.00% # Number of instructions fetched each cycle (Total)
system.switch_cpus.fetch.rateDist::0         13873741     79.66%     79.66% # Number of instructions fetched each cycle (Total)
system.switch_cpus.fetch.rateDist::1           108420      0.62%     80.28% # Number of instructions fetched each cycle (Total)
system.switch_cpus.fetch.rateDist::2           211400      1.21%     81.50% # Number of instructions fetched each cycle (Total)
system.switch_cpus.fetch.rateDist::3           176452      1.01%     82.51% # Number of instructions fetched each cycle (Total)
system.switch_cpus.fetch.rateDist::4           186972      1.07%     83.58% # Number of instructions fetched each cycle (Total)
system.switch_cpus.fetch.rateDist::5           148433      0.85%     84.44% # Number of instructions fetched each cycle (Total)
system.switch_cpus.fetch.rateDist::6           223225      1.28%     85.72% # Number of instructions fetched each cycle (Total)
system.switch_cpus.fetch.rateDist::7            85578      0.49%     86.21% # Number of instructions fetched each cycle (Total)
system.switch_cpus.fetch.rateDist::8          2401628     13.79%    100.00% # Number of instructions fetched each cycle (Total)
system.switch_cpus.fetch.rateDist::overflows            0      0.00%    100.00% # Number of instructions fetched each cycle (Total)
system.switch_cpus.fetch.rateDist::min_value            0                       # Number of instructions fetched each cycle (Total)
system.switch_cpus.fetch.rateDist::max_value            8                       # Number of instructions fetched each cycle (Total)
system.switch_cpus.fetch.rateDist::total     17415849                       # Number of instructions fetched each cycle (Total)
system.switch_cpus.fp_regfile_reads          34698524                       # number of floating regfile reads
system.switch_cpus.fp_regfile_writes         18491756                       # number of floating regfile writes
system.switch_cpus.idleCycles                  120545                       # Total number of cycles that the CPU has spent unscheduled due to idling
system.switch_cpus.iew.branchMispredicts         8551                       # Number of branch mispredicts detected at execute
system.switch_cpus.iew.exec_branches           137235                       # Number of branches executed
system.switch_cpus.iew.exec_nop                     0                       # number of nop insts executed
system.switch_cpus.iew.exec_rate             1.326082                       # Inst execution rate
system.switch_cpus.iew.exec_refs             10218835                       # number of memory reference insts executed
system.switch_cpus.iew.exec_stores            2377356                       # Number of stores executed
system.switch_cpus.iew.exec_swp                     0                       # number of swp insts executed
system.switch_cpus.iew.iewBlockCycles          416420                       # Number of cycles IEW is blocking
system.switch_cpus.iew.iewDispLoadInsts       7706893                       # Number of dispatched load instructions
system.switch_cpus.iew.iewDispNonSpecInsts           10                       # Number of dispatched non-speculative instructions
system.switch_cpus.iew.iewDispSquashedInsts          332                       # Number of squashed instructions skipped by dispatch
system.switch_cpus.iew.iewDispStoreInsts      2445388                       # Number of dispatched store instructions
system.switch_cpus.iew.iewDispatchedInsts     23265297                       # Number of instructions dispatched to IQ
system.switch_cpus.iew.iewExecLoadInsts       7841479                       # Number of load instructions executed
system.switch_cpus.iew.iewExecSquashedInsts        17782                       # Number of squashed instructions skipped in execute
system.switch_cpus.iew.iewExecutedInsts      23254705                       # Number of executed instructions
system.switch_cpus.iew.iewIQFullEvents           4336                       # Number of times the IQ has become full, causing a stall
system.switch_cpus.iew.iewIdleCycles                0                       # Number of cycles IEW is idle
system.switch_cpus.iew.iewLSQFullEvents       4418009                       # Number of times the LSQ has become full, causing a stall
system.switch_cpus.iew.iewSquashCycles          12986                       # Number of cycles IEW is squashing
system.switch_cpus.iew.iewUnblockCycles       4428759                       # Number of cycles IEW is unblocking
system.switch_cpus.iew.lsq.thread0.blockedLoads            0                       # Number of blocked loads due to partial load-store forwarding
system.switch_cpus.iew.lsq.thread0.cacheBlocked        28866                       # Number of times an access to memory failed due to the cache being blocked
system.switch_cpus.iew.lsq.thread0.forwLoads       546232                       # Number of loads that had data forwarded from stores
system.switch_cpus.iew.lsq.thread0.ignoredResponses           87                       # Number of memory responses ignored because the instruction is squashed
system.switch_cpus.iew.lsq.thread0.invAddrLoads            0                       # Number of loads ignored due to an invalid address
system.switch_cpus.iew.lsq.thread0.invAddrSwpfs            0                       # Number of software prefetches ignored due to an invalid address
system.switch_cpus.iew.lsq.thread0.memOrderViolation          311                       # Number of memory ordering violations
system.switch_cpus.iew.lsq.thread0.rescheduledLoads            0                       # Number of loads that were rescheduled
system.switch_cpus.iew.lsq.thread0.squashedLoads       200116                       # Number of loads squashed
system.switch_cpus.iew.lsq.thread0.squashedStores       217396                       # Number of stores squashed
system.switch_cpus.iew.memOrderViolationEvents          311                       # Number of memory order violations
system.switch_cpus.iew.predictedNotTakenIncorrect         6794                       # Number of branches that were predicted not taken incorrectly
system.switch_cpus.iew.predictedTakenIncorrect         1757                       # Number of branches that were predicted taken incorrectly
system.switch_cpus.iew.wb_consumers          28952430                       # num instructions consuming a value
system.switch_cpus.iew.wb_count              23037034                       # cumulative count of insts written-back
system.switch_cpus.iew.wb_fanout             0.606188                       # average fanout of values written-back
system.switch_cpus.iew.wb_producers          17550617                       # num instructions producing a value
system.switch_cpus.iew.wb_rate               1.313670                       # insts written-back per cycle
system.switch_cpus.iew.wb_sent               23093262                       # cumulative count of insts sent to commit
system.switch_cpus.int_regfile_reads         21962129                       # number of integer regfile reads
system.switch_cpus.int_regfile_writes         2030822                       # number of integer regfile writes
system.switch_cpus.ipc                       0.570243                       # IPC: Instructions Per Cycle
system.switch_cpus.ipc_total                 0.570243                       # IPC: Total IPC of All Threads
system.switch_cpus.iq.FU_type_0::No_OpClass        55538      0.24%      0.24% # Type of FU issued
system.switch_cpus.iq.FU_type_0::IntAlu       3790585     16.29%     16.53% # Type of FU issued
system.switch_cpus.iq.FU_type_0::IntMult          652      0.00%     16.53% # Type of FU issued
system.switch_cpus.iq.FU_type_0::IntDiv           140      0.00%     16.53% # Type of FU issued
system.switch_cpus.iq.FU_type_0::FloatAdd         3684      0.02%     16.55% # Type of FU issued
system.switch_cpus.iq.FU_type_0::FloatCmp            0      0.00%     16.55% # Type of FU issued
system.switch_cpus.iq.FU_type_0::FloatCvt            0      0.00%     16.55% # Type of FU issued
system.switch_cpus.iq.FU_type_0::FloatMult            0      0.00%     16.55% # Type of FU issued
system.switch_cpus.iq.FU_type_0::FloatMultAcc            0      0.00%     16.55% # Type of FU issued
system.switch_cpus.iq.FU_type_0::FloatDiv            0      0.00%     16.55% # Type of FU issued
system.switch_cpus.iq.FU_type_0::FloatMisc            0      0.00%     16.55% # Type of FU issued
system.switch_cpus.iq.FU_type_0::FloatSqrt            0      0.00%     16.55% # Type of FU issued
system.switch_cpus.iq.FU_type_0::SimdAdd          796      0.00%     16.55% # Type of FU issued
system.switch_cpus.iq.FU_type_0::SimdAddAcc            0      0.00%     16.55% # Type of FU issued
system.switch_cpus.iq.FU_type_0::SimdAlu        56977      0.24%     16.79% # Type of FU issued
system.switch_cpus.iq.FU_type_0::SimdCmp            0      0.00%     16.79% # Type of FU issued
system.switch_cpus.iq.FU_type_0::SimdCvt         5014      0.02%     16.82% # Type of FU issued
system.switch_cpus.iq.FU_type_0::SimdMisc         5110      0.02%     16.84% # Type of FU issued
system.switch_cpus.iq.FU_type_0::SimdMult            0      0.00%     16.84% # Type of FU issued
system.switch_cpus.iq.FU_type_0::SimdMultAcc            0      0.00%     16.84% # Type of FU issued
system.switch_cpus.iq.FU_type_0::SimdShift           64      0.00%     16.84% # Type of FU issued
system.switch_cpus.iq.FU_type_0::SimdShiftAcc            0      0.00%     16.84% # Type of FU issued
system.switch_cpus.iq.FU_type_0::SimdDiv            0      0.00%     16.84% # Type of FU issued
system.switch_cpus.iq.FU_type_0::SimdSqrt            0      0.00%     16.84% # Type of FU issued
system.switch_cpus.iq.FU_type_0::SimdFloatAdd      5262553     22.61%     39.45% # Type of FU issued
system.switch_cpus.iq.FU_type_0::SimdFloatAlu            0      0.00%     39.45% # Type of FU issued
system.switch_cpus.iq.FU_type_0::SimdFloatCmp            0      0.00%     39.45% # Type of FU issued
system.switch_cpus.iq.FU_type_0::SimdFloatCvt            1      0.00%     39.45% # Type of FU issued
system.switch_cpus.iq.FU_type_0::SimdFloatDiv        10956      0.05%     39.50% # Type of FU issued
system.switch_cpus.iq.FU_type_0::SimdFloatMisc            0      0.00%     39.50% # Type of FU issued
system.switch_cpus.iq.FU_type_0::SimdFloatMult      3855542     16.57%     56.06% # Type of FU issued
system.switch_cpus.iq.FU_type_0::SimdFloatMultAcc            0      0.00%     56.06% # Type of FU issued
system.switch_cpus.iq.FU_type_0::SimdFloatSqrt            0      0.00%     56.06% # Type of FU issued
system.switch_cpus.iq.FU_type_0::SimdReduceAdd            0      0.00%     56.06% # Type of FU issued
system.switch_cpus.iq.FU_type_0::SimdReduceAlu            0      0.00%     56.06% # Type of FU issued
system.switch_cpus.iq.FU_type_0::SimdReduceCmp            0      0.00%     56.06% # Type of FU issued
system.switch_cpus.iq.FU_type_0::SimdFloatReduceAdd            0      0.00%     56.06% # Type of FU issued
system.switch_cpus.iq.FU_type_0::SimdFloatReduceCmp            0      0.00%     56.06% # Type of FU issued
system.switch_cpus.iq.FU_type_0::SimdAes            0      0.00%     56.06% # Type of FU issued
system.switch_cpus.iq.FU_type_0::SimdAesMix            0      0.00%     56.06% # Type of FU issued
system.switch_cpus.iq.FU_type_0::SimdSha1Hash            0      0.00%     56.06% # Type of FU issued
system.switch_cpus.iq.FU_type_0::SimdSha1Hash2            0      0.00%     56.06% # Type of FU issued
system.switch_cpus.iq.FU_type_0::SimdSha256Hash            0      0.00%     56.06% # Type of FU issued
system.switch_cpus.iq.FU_type_0::SimdSha256Hash2            0      0.00%     56.06% # Type of FU issued
system.switch_cpus.iq.FU_type_0::SimdShaSigma2            0      0.00%     56.06% # Type of FU issued
system.switch_cpus.iq.FU_type_0::SimdShaSigma3            0      0.00%     56.06% # Type of FU issued
system.switch_cpus.iq.FU_type_0::SimdPredAlu            0      0.00%     56.06% # Type of FU issued
system.switch_cpus.iq.FU_type_0::MemRead       896548      3.85%     59.92% # Type of FU issued
system.switch_cpus.iq.FU_type_0::MemWrite       131138      0.56%     60.48% # Type of FU issued
system.switch_cpus.iq.FU_type_0::FloatMemRead      6949697     29.86%     90.34% # Type of FU issued
system.switch_cpus.iq.FU_type_0::FloatMemWrite      2247493      9.66%    100.00% # Type of FU issued
system.switch_cpus.iq.FU_type_0::IprAccess            0      0.00%    100.00% # Type of FU issued
system.switch_cpus.iq.FU_type_0::InstPrefetch            0      0.00%    100.00% # Type of FU issued
system.switch_cpus.iq.FU_type_0::total       23272488                       # Type of FU issued
system.switch_cpus.iq.fp_alu_accesses        21769807                       # Number of floating point alu accesses
system.switch_cpus.iq.fp_inst_queue_reads     42631475                       # Number of floating instruction queue reads
system.switch_cpus.iq.fp_inst_queue_wakeup_accesses     20741165                       # Number of floating instruction queue wakeup accesses
system.switch_cpus.iq.fp_inst_queue_writes     21030877                       # Number of floating instruction queue writes
system.switch_cpus.iq.fu_busy_cnt             1024329                       # FU busy when requested
system.switch_cpus.iq.fu_busy_rate           0.044015                       # FU busy rate (busy events/executed inst)
system.switch_cpus.iq.fu_full::No_OpClass            0      0.00%      0.00% # attempts to use FU when none available
system.switch_cpus.iq.fu_full::IntAlu           12960      1.27%      1.27% # attempts to use FU when none available
system.switch_cpus.iq.fu_full::IntMult              0      0.00%      1.27% # attempts to use FU when none available
system.switch_cpus.iq.fu_full::IntDiv               0      0.00%      1.27% # attempts to use FU when none available
system.switch_cpus.iq.fu_full::FloatAdd             0      0.00%      1.27% # attempts to use FU when none available
system.switch_cpus.iq.fu_full::FloatCmp             0      0.00%      1.27% # attempts to use FU when none available
system.switch_cpus.iq.fu_full::FloatCvt             0      0.00%      1.27% # attempts to use FU when none available
system.switch_cpus.iq.fu_full::FloatMult            0      0.00%      1.27% # attempts to use FU when none available
system.switch_cpus.iq.fu_full::FloatMultAcc            0      0.00%      1.27% # attempts to use FU when none available
system.switch_cpus.iq.fu_full::FloatDiv             0      0.00%      1.27% # attempts to use FU when none available
system.switch_cpus.iq.fu_full::FloatMisc            0      0.00%      1.27% # attempts to use FU when none available
system.switch_cpus.iq.fu_full::FloatSqrt            0      0.00%      1.27% # attempts to use FU when none available
system.switch_cpus.iq.fu_full::SimdAdd              0      0.00%      1.27% # attempts to use FU when none available
system.switch_cpus.iq.fu_full::SimdAddAcc            0      0.00%      1.27% # attempts to use FU when none available
system.switch_cpus.iq.fu_full::SimdAlu            718      0.07%      1.34% # attempts to use FU when none available
system.switch_cpus.iq.fu_full::SimdCmp              0      0.00%      1.34% # attempts to use FU when none available
system.switch_cpus.iq.fu_full::SimdCvt              0      0.00%      1.34% # attempts to use FU when none available
system.switch_cpus.iq.fu_full::SimdMisc           363      0.04%      1.37% # attempts to use FU when none available
system.switch_cpus.iq.fu_full::SimdMult             0      0.00%      1.37% # attempts to use FU when none available
system.switch_cpus.iq.fu_full::SimdMultAcc            0      0.00%      1.37% # attempts to use FU when none available
system.switch_cpus.iq.fu_full::SimdShift            0      0.00%      1.37% # attempts to use FU when none available
system.switch_cpus.iq.fu_full::SimdShiftAcc            0      0.00%      1.37% # attempts to use FU when none available
system.switch_cpus.iq.fu_full::SimdDiv              0      0.00%      1.37% # attempts to use FU when none available
system.switch_cpus.iq.fu_full::SimdSqrt             0      0.00%      1.37% # attempts to use FU when none available
system.switch_cpus.iq.fu_full::SimdFloatAdd       115727     11.30%     12.67% # attempts to use FU when none available
system.switch_cpus.iq.fu_full::SimdFloatAlu            0      0.00%     12.67% # attempts to use FU when none available
system.switch_cpus.iq.fu_full::SimdFloatCmp            0      0.00%     12.67% # attempts to use FU when none available
system.switch_cpus.iq.fu_full::SimdFloatCvt            0      0.00%     12.67% # attempts to use FU when none available
system.switch_cpus.iq.fu_full::SimdFloatDiv            0      0.00%     12.67% # attempts to use FU when none available
system.switch_cpus.iq.fu_full::SimdFloatMisc            0      0.00%     12.67% # attempts to use FU when none available
system.switch_cpus.iq.fu_full::SimdFloatMult       249368     24.34%     37.01% # attempts to use FU when none available
system.switch_cpus.iq.fu_full::SimdFloatMultAcc            0      0.00%     37.01% # attempts to use FU when none available
system.switch_cpus.iq.fu_full::SimdFloatSqrt            0      0.00%     37.01% # attempts to use FU when none available
system.switch_cpus.iq.fu_full::SimdReduceAdd            0      0.00%     37.01% # attempts to use FU when none available
system.switch_cpus.iq.fu_full::SimdReduceAlu            0      0.00%     37.01% # attempts to use FU when none available
system.switch_cpus.iq.fu_full::SimdReduceCmp            0      0.00%     37.01% # attempts to use FU when none available
system.switch_cpus.iq.fu_full::SimdFloatReduceAdd            0      0.00%     37.01% # attempts to use FU when none available
system.switch_cpus.iq.fu_full::SimdFloatReduceCmp            0      0.00%     37.01% # attempts to use FU when none available
system.switch_cpus.iq.fu_full::SimdAes              0      0.00%     37.01% # attempts to use FU when none available
system.switch_cpus.iq.fu_full::SimdAesMix            0      0.00%     37.01% # attempts to use FU when none available
system.switch_cpus.iq.fu_full::SimdSha1Hash            0      0.00%     37.01% # attempts to use FU when none available
system.switch_cpus.iq.fu_full::SimdSha1Hash2            0      0.00%     37.01% # attempts to use FU when none available
system.switch_cpus.iq.fu_full::SimdSha256Hash            0      0.00%     37.01% # attempts to use FU when none available
system.switch_cpus.iq.fu_full::SimdSha256Hash2            0      0.00%     37.01% # attempts to use FU when none available
system.switch_cpus.iq.fu_full::SimdShaSigma2            0      0.00%     37.01% # attempts to use FU when none available
system.switch_cpus.iq.fu_full::SimdShaSigma3            0      0.00%     37.01% # attempts to use FU when none available
system.switch_cpus.iq.fu_full::SimdPredAlu            0      0.00%     37.01% # attempts to use FU when none available
system.switch_cpus.iq.fu_full::MemRead          88004      8.59%     45.60% # attempts to use FU when none available
system.switch_cpus.iq.fu_full::MemWrite         14707      1.44%     47.04% # attempts to use FU when none available
system.switch_cpus.iq.fu_full::FloatMemRead       484835     47.33%     94.37% # attempts to use FU when none available
system.switch_cpus.iq.fu_full::FloatMemWrite        57647      5.63%    100.00% # attempts to use FU when none available
system.switch_cpus.iq.fu_full::IprAccess            0      0.00%    100.00% # attempts to use FU when none available
system.switch_cpus.iq.fu_full::InstPrefetch            0      0.00%    100.00% # attempts to use FU when none available
system.switch_cpus.iq.int_alu_accesses        2471472                       # Number of integer alu accesses
system.switch_cpus.iq.int_inst_queue_reads     22357530                       # Number of integer instruction queue reads
system.switch_cpus.iq.int_inst_queue_wakeup_accesses      2295869                       # Number of integer instruction queue wakeup accesses
system.switch_cpus.iq.int_inst_queue_writes      3125313                       # Number of integer instruction queue writes
system.switch_cpus.iq.iqInstsAdded           23260467                       # Number of instructions added to the IQ (excludes non-spec)
system.switch_cpus.iq.iqInstsIssued          23272488                       # Number of instructions issued
system.switch_cpus.iq.iqNonSpecInstsAdded         4830                       # Number of non-speculative instructions added to the IQ
system.switch_cpus.iq.iqSquashedInstsExamined       890596                       # Number of squashed instructions iterated over during squash; mainly for profiling
system.switch_cpus.iq.iqSquashedInstsIssued         3852                       # Number of squashed instructions issued
system.switch_cpus.iq.iqSquashedNonSpecRemoved         4425                       # Number of squashed non-spec instructions that were removed
system.switch_cpus.iq.iqSquashedOperandsExamined       585861                       # Number of squashed operands that are examined and possibly removed from graph
system.switch_cpus.iq.issued_per_cycle::samples     17415849                       # Number of insts issued each cycle
system.switch_cpus.iq.issued_per_cycle::mean     1.336282                       # Number of insts issued each cycle
system.switch_cpus.iq.issued_per_cycle::stdev     2.322148                       # Number of insts issued each cycle
system.switch_cpus.iq.issued_per_cycle::underflows            0      0.00%      0.00% # Number of insts issued each cycle
system.switch_cpus.iq.issued_per_cycle::0     11961981     68.68%     68.68% # Number of insts issued each cycle
system.switch_cpus.iq.issued_per_cycle::1       706745      4.06%     72.74% # Number of insts issued each cycle
system.switch_cpus.iq.issued_per_cycle::2       735317      4.22%     76.96% # Number of insts issued each cycle
system.switch_cpus.iq.issued_per_cycle::3       655033      3.76%     80.73% # Number of insts issued each cycle
system.switch_cpus.iq.issued_per_cycle::4       893252      5.13%     85.85% # Number of insts issued each cycle
system.switch_cpus.iq.issued_per_cycle::5       702270      4.03%     89.89% # Number of insts issued each cycle
system.switch_cpus.iq.issued_per_cycle::6       782249      4.49%     94.38% # Number of insts issued each cycle
system.switch_cpus.iq.issued_per_cycle::7       479858      2.76%     97.13% # Number of insts issued each cycle
system.switch_cpus.iq.issued_per_cycle::8       499144      2.87%    100.00% # Number of insts issued each cycle
system.switch_cpus.iq.issued_per_cycle::overflows            0      0.00%    100.00% # Number of insts issued each cycle
system.switch_cpus.iq.issued_per_cycle::min_value            0                       # Number of insts issued each cycle
system.switch_cpus.iq.issued_per_cycle::max_value            8                       # Number of insts issued each cycle
system.switch_cpus.iq.issued_per_cycle::total     17415849                       # Number of insts issued each cycle
system.switch_cpus.iq.rate                   1.327097                       # Inst issue rate
system.switch_cpus.iq.vec_alu_accesses              0                       # Number of vector alu accesses
system.switch_cpus.iq.vec_inst_queue_reads            0                       # Number of vector instruction queue reads
system.switch_cpus.iq.vec_inst_queue_wakeup_accesses            0                       # Number of vector instruction queue wakeup accesses
system.switch_cpus.iq.vec_inst_queue_writes            0                       # Number of vector instruction queue writes
system.switch_cpus.itb.rdAccesses                   0                       # TLB accesses on read requests
system.switch_cpus.itb.rdMisses                     0                       # TLB misses on read requests
system.switch_cpus.itb.wrAccesses             1120793                       # TLB accesses on write requests
system.switch_cpus.itb.wrMisses                   300                       # TLB misses on write requests
system.switch_cpus.memDep0.conflictingLoads        24222                       # Number of conflicting loads.
system.switch_cpus.memDep0.conflictingStores       113630                       # Number of conflicting stores.
system.switch_cpus.memDep0.insertedLoads      7706893                       # Number of loads inserted to the mem dependence unit.
system.switch_cpus.memDep0.insertedStores      2445388                       # Number of stores inserted to the mem dependence unit.
system.switch_cpus.misc_regfile_reads        10724535                       # number of misc regfile reads
system.switch_cpus.misc_regfile_writes              1                       # number of misc regfile writes
system.switch_cpus.numCycles                 17536394                       # number of cpu cycles simulated
system.switch_cpus.numWorkItemsCompleted            0                       # number of work items this cpu completed
system.switch_cpus.numWorkItemsStarted              0                       # number of work items this cpu started
system.switch_cpus.rename.BlockCycles         4925310                       # Number of cycles rename is blocking
system.switch_cpus.rename.CommittedMaps      20443121                       # Number of HB maps that are committed
system.switch_cpus.rename.IQFullEvents         234049                       # Number of times rename has blocked due to IQ full
system.switch_cpus.rename.IdleCycles          1115813                       # Number of cycles rename is idle
system.switch_cpus.rename.LQFullEvents        2916017                       # Number of times rename has blocked due to LQ full
system.switch_cpus.rename.ROBFullEvents         14773                       # Number of times rename has blocked due to ROB full
system.switch_cpus.rename.RenameLookups      68393917                       # Number of register rename lookups that rename has made
system.switch_cpus.rename.RenamedInsts       23340074                       # Number of instructions processed by rename
system.switch_cpus.rename.RenamedOperands     21338905                       # Number of destination operands rename has renamed
system.switch_cpus.rename.RunCycles           2867817                       # Number of cycles rename is running
system.switch_cpus.rename.SQFullEvents        5357017                       # Number of times rename has blocked due to SQ full
system.switch_cpus.rename.SquashCycles          12986                       # Number of cycles rename is squashing
system.switch_cpus.rename.UnblockCycles       8493517                       # Number of cycles rename is unblocking
system.switch_cpus.rename.UndoneMaps           895737                       # Number of HB maps that are undone due to squashing
system.switch_cpus.rename.fp_rename_lookups     34763869                       # Number of floating rename lookups
system.switch_cpus.rename.int_rename_lookups     22097045                       # Number of integer rename lookups
system.switch_cpus.rename.serializeStallCycles           69                       # count of cycles rename stalled for serializing inst
system.switch_cpus.rename.serializingInsts           14                       # count of serializing insts renamed
system.switch_cpus.rename.skidInsts           3753619                       # count of insts added to the skid buffer
system.switch_cpus.rename.tempSerializingInsts           14                       # count of temporary serializing insts renamed
system.switch_cpus.rob.rob_reads             38833823                       # The number of ROB reads
system.switch_cpus.rob.rob_writes            46399804                       # The number of ROB writes
system.switch_cpus.timesIdled                    1347                       # Number of times that the entire CPU went into an idle state and unscheduled itself
system.tol2bus.snoop_filter.hit_multi_requests            3                       # Number of requests hitting in the snoop filter with multiple (>1) holders of the requested data.
system.tol2bus.snoop_filter.hit_multi_snoops            1                       # Number of snoops hitting in the snoop filter with multiple (>1) holders of the requested data.
system.tol2bus.snoop_filter.hit_single_requests       119229                       # Number of requests hitting in the snoop filter with a single holder of the requested data.
system.tol2bus.snoop_filter.hit_single_snoops        83730                       # Number of snoops hitting in the snoop filter with a single holder of the requested data.
system.tol2bus.snoop_filter.tot_requests       239997                       # Total number of requests made to the snoop filter.
system.tol2bus.snoop_filter.tot_snoops          83731                       # Total number of snoops made to the snoop filter.
system.membus.pwrStateResidencyTicks::UNDEFINED 371669863090500                       # Cumulative time (in ticks) in various power states
system.membus.trans_dist::ReadResp              77746                       # Transaction distribution
system.membus.trans_dist::WritebackDirty        33832                       # Transaction distribution
system.membus.trans_dist::CleanEvict            74102                       # Transaction distribution
system.membus.trans_dist::UpgradeReq                1                       # Transaction distribution
system.membus.trans_dist::ReadExReq             33129                       # Transaction distribution
system.membus.trans_dist::ReadExResp            33129                       # Transaction distribution
system.membus.trans_dist::ReadSharedReq         77746                       # Transaction distribution
system.membus.pkt_count_system.l2.mem_side::system.mem_ctrls.port       329685                       # Packet count per connected master and slave (bytes)
system.membus.pkt_count_system.l2.mem_side::total       329685                       # Packet count per connected master and slave (bytes)
system.membus.pkt_count::total                 329685                       # Packet count per connected master and slave (bytes)
system.membus.pkt_size_system.l2.mem_side::system.mem_ctrls.port      9261248                       # Cumulative packet size per connected master and slave (bytes)
system.membus.pkt_size_system.l2.mem_side::total      9261248                       # Cumulative packet size per connected master and slave (bytes)
system.membus.pkt_size::total                 9261248                       # Cumulative packet size per connected master and slave (bytes)
system.membus.snoops                                0                       # Total snoops (count)
system.membus.snoopTraffic                          0                       # Total snoop traffic (bytes)
system.membus.snoop_fanout::samples            110876                       # Request fanout histogram
system.membus.snoop_fanout::mean                    0                       # Request fanout histogram
system.membus.snoop_fanout::stdev                   0                       # Request fanout histogram
system.membus.snoop_fanout::underflows              0      0.00%      0.00% # Request fanout histogram
system.membus.snoop_fanout::0                  110876    100.00%    100.00% # Request fanout histogram
system.membus.snoop_fanout::1                       0      0.00%    100.00% # Request fanout histogram
system.membus.snoop_fanout::overflows               0      0.00%    100.00% # Request fanout histogram
system.membus.snoop_fanout::min_value               0                       # Request fanout histogram
system.membus.snoop_fanout::max_value               0                       # Request fanout histogram
system.membus.snoop_fanout::total              110876                       # Request fanout histogram
system.membus.reqLayer2.occupancy           374277000                       # Layer occupancy (ticks)
system.membus.reqLayer2.utilization               4.3                       # Layer utilization (%)
system.membus.respLayer1.occupancy          612571750                       # Layer occupancy (ticks)
system.membus.respLayer1.utilization              7.0                       # Layer utilization (%)
system.switch_cpus.pwrStateResidencyTicks::OFF   8768208000                       # Cumulative time (in ticks) in various power states
system.switch_cpus.dtb.walker.pwrStateResidencyTicks::UNDEFINED 371669863090500                       # Cumulative time (in ticks) in various power states
system.switch_cpus.itb.walker.pwrStateResidencyTicks::UNDEFINED 371669863090500                       # Cumulative time (in ticks) in various power states
system.tol2bus.pwrStateResidencyTicks::UNDEFINED 371669863090500                       # Cumulative time (in ticks) in various power states
system.tol2bus.trans_dist::ReadResp             85122                       # Transaction distribution
system.tol2bus.trans_dist::WritebackDirty        72915                       # Transaction distribution
system.tol2bus.trans_dist::WritebackClean         1773                       # Transaction distribution
system.tol2bus.trans_dist::CleanEvict          181393                       # Transaction distribution
system.tol2bus.trans_dist::UpgradeReq               1                       # Transaction distribution
system.tol2bus.trans_dist::UpgradeResp              1                       # Transaction distribution
system.tol2bus.trans_dist::ReadExReq            35643                       # Transaction distribution
system.tol2bus.trans_dist::ReadExResp           35643                       # Transaction distribution
system.tol2bus.trans_dist::ReadCleanReq          2285                       # Transaction distribution
system.tol2bus.trans_dist::ReadSharedReq        82839                       # Transaction distribution
system.tol2bus.pkt_count_system.cpu.icache.mem_side::system.l2.cpu_side         6342                       # Packet count per connected master and slave (bytes)
system.tol2bus.pkt_count_system.cpu.dcache.mem_side::system.l2.cpu_side       354420                       # Packet count per connected master and slave (bytes)
system.tol2bus.pkt_count::total                360762                       # Packet count per connected master and slave (bytes)
system.tol2bus.pkt_size_system.cpu.icache.mem_side::system.l2.cpu_side       259648                       # Cumulative packet size per connected master and slave (bytes)
system.tol2bus.pkt_size_system.cpu.dcache.mem_side::system.l2.cpu_side     10084032                       # Cumulative packet size per connected master and slave (bytes)
system.tol2bus.pkt_size::total               10343680                       # Cumulative packet size per connected master and slave (bytes)
system.tol2bus.snoops                          136853                       # Total snoops (count)
system.tol2bus.snoopTraffic                   2165312                       # Total snoop traffic (bytes)
system.tol2bus.snoop_fanout::samples           257620                       # Request fanout histogram
system.tol2bus.snoop_fanout::mean            0.325033                       # Request fanout histogram
system.tol2bus.snoop_fanout::stdev           0.468396                       # Request fanout histogram
system.tol2bus.snoop_fanout::underflows             0      0.00%      0.00% # Request fanout histogram
system.tol2bus.snoop_fanout::0                 173886     67.50%     67.50% # Request fanout histogram
system.tol2bus.snoop_fanout::1                  83733     32.50%    100.00% # Request fanout histogram
system.tol2bus.snoop_fanout::2                      1      0.00%    100.00% # Request fanout histogram
system.tol2bus.snoop_fanout::3                      0      0.00%    100.00% # Request fanout histogram
system.tol2bus.snoop_fanout::4                      0      0.00%    100.00% # Request fanout histogram
system.tol2bus.snoop_fanout::overflows              0      0.00%    100.00% # Request fanout histogram
system.tol2bus.snoop_fanout::min_value              0                       # Request fanout histogram
system.tol2bus.snoop_fanout::max_value              2                       # Request fanout histogram
system.tol2bus.snoop_fanout::total             257620                       # Request fanout histogram
system.tol2bus.reqLayer0.occupancy          160851500                       # Layer occupancy (ticks)
system.tol2bus.reqLayer0.utilization              1.8                       # Layer utilization (%)
system.tol2bus.respLayer1.occupancy         177714500                       # Layer occupancy (ticks)
system.tol2bus.respLayer1.utilization             2.0                       # Layer utilization (%)
system.tol2bus.respLayer0.occupancy           3424500                       # Layer occupancy (ticks)
system.tol2bus.respLayer0.utilization             0.0                       # Layer utilization (%)
system.voltage_domain.voltage                       1                       # Voltage in Volts
system.clk_domain.clock                          1000                       # Clock period in ticks
system.l2.pwrStateResidencyTicks::UNDEFINED 371669863090500                       # Cumulative time (in ticks) in various power states
system.l2.demand_hits::.switch_cpus.inst          838                       # number of demand (read+write) hits
system.l2.demand_hits::.switch_cpus.data         9051                       # number of demand (read+write) hits
system.l2.demand_hits::total                     9889                       # number of demand (read+write) hits
system.l2.overall_hits::.switch_cpus.inst          838                       # number of overall hits
system.l2.overall_hits::.switch_cpus.data         9051                       # number of overall hits
system.l2.overall_hits::total                    9889                       # number of overall hits
system.l2.demand_misses::.cpu.inst                  2                       # number of demand (read+write) misses
system.l2.demand_misses::.cpu.data                  4                       # number of demand (read+write) misses
system.l2.demand_misses::.switch_cpus.inst         1444                       # number of demand (read+write) misses
system.l2.demand_misses::.switch_cpus.data       109427                       # number of demand (read+write) misses
system.l2.demand_misses::total                 110877                       # number of demand (read+write) misses
system.l2.overall_misses::.cpu.inst                 2                       # number of overall misses
system.l2.overall_misses::.cpu.data                 4                       # number of overall misses
system.l2.overall_misses::.switch_cpus.inst         1444                       # number of overall misses
system.l2.overall_misses::.switch_cpus.data       109427                       # number of overall misses
system.l2.overall_misses::total                110877                       # number of overall misses
system.l2.demand_miss_latency::.switch_cpus.inst    117141500                       # number of demand (read+write) miss cycles
system.l2.demand_miss_latency::.switch_cpus.data  11134378000                       # number of demand (read+write) miss cycles
system.l2.demand_miss_latency::total      11251519500                       # number of demand (read+write) miss cycles
system.l2.overall_miss_latency::.switch_cpus.inst    117141500                       # number of overall miss cycles
system.l2.overall_miss_latency::.switch_cpus.data  11134378000                       # number of overall miss cycles
system.l2.overall_miss_latency::total     11251519500                       # number of overall miss cycles
system.l2.demand_accesses::.cpu.inst                2                       # number of demand (read+write) accesses
system.l2.demand_accesses::.cpu.data                4                       # number of demand (read+write) accesses
system.l2.demand_accesses::.switch_cpus.inst         2282                       # number of demand (read+write) accesses
system.l2.demand_accesses::.switch_cpus.data       118478                       # number of demand (read+write) accesses
system.l2.demand_accesses::total               120766                       # number of demand (read+write) accesses
system.l2.overall_accesses::.cpu.inst               2                       # number of overall (read+write) accesses
system.l2.overall_accesses::.cpu.data               4                       # number of overall (read+write) accesses
system.l2.overall_accesses::.switch_cpus.inst         2282                       # number of overall (read+write) accesses
system.l2.overall_accesses::.switch_cpus.data       118478                       # number of overall (read+write) accesses
system.l2.overall_accesses::total              120766                       # number of overall (read+write) accesses
system.l2.demand_miss_rate::.cpu.inst               1                       # miss rate for demand accesses
system.l2.demand_miss_rate::.cpu.data               1                       # miss rate for demand accesses
system.l2.demand_miss_rate::.switch_cpus.inst     0.632778                       # miss rate for demand accesses
system.l2.demand_miss_rate::.switch_cpus.data     0.923606                       # miss rate for demand accesses
system.l2.demand_miss_rate::total            0.918114                       # miss rate for demand accesses
system.l2.overall_miss_rate::.cpu.inst              1                       # miss rate for overall accesses
system.l2.overall_miss_rate::.cpu.data              1                       # miss rate for overall accesses
system.l2.overall_miss_rate::.switch_cpus.inst     0.632778                       # miss rate for overall accesses
system.l2.overall_miss_rate::.switch_cpus.data     0.923606                       # miss rate for overall accesses
system.l2.overall_miss_rate::total           0.918114                       # miss rate for overall accesses
system.l2.demand_avg_miss_latency::.switch_cpus.inst 81122.922438                       # average overall miss latency
system.l2.demand_avg_miss_latency::.switch_cpus.data 101751.651786                       # average overall miss latency
system.l2.demand_avg_miss_latency::total 101477.488568                       # average overall miss latency
system.l2.overall_avg_miss_latency::.switch_cpus.inst 81122.922438                       # average overall miss latency
system.l2.overall_avg_miss_latency::.switch_cpus.data 101751.651786                       # average overall miss latency
system.l2.overall_avg_miss_latency::total 101477.488568                       # average overall miss latency
system.l2.blocked_cycles::no_mshrs                  0                       # number of cycles access was blocked
system.l2.blocked_cycles::no_targets                0                       # number of cycles access was blocked
system.l2.blocked::no_mshrs                         0                       # number of cycles access was blocked
system.l2.blocked::no_targets                       0                       # number of cycles access was blocked
system.l2.avg_blocked_cycles::no_mshrs            nan                       # average number of cycles each access was blocked
system.l2.avg_blocked_cycles::no_targets          nan                       # average number of cycles each access was blocked
system.l2.writebacks::.writebacks               33832                       # number of writebacks
system.l2.writebacks::total                     33832                       # number of writebacks
system.l2.demand_mshr_misses::.switch_cpus.inst         1444                       # number of demand (read+write) MSHR misses
system.l2.demand_mshr_misses::.switch_cpus.data       109427                       # number of demand (read+write) MSHR misses
system.l2.demand_mshr_misses::total            110871                       # number of demand (read+write) MSHR misses
system.l2.overall_mshr_misses::.switch_cpus.inst         1444                       # number of overall MSHR misses
system.l2.overall_mshr_misses::.switch_cpus.data       109427                       # number of overall MSHR misses
system.l2.overall_mshr_misses::total           110871                       # number of overall MSHR misses
system.l2.demand_mshr_miss_latency::.switch_cpus.inst    102701500                       # number of demand (read+write) MSHR miss cycles
system.l2.demand_mshr_miss_latency::.switch_cpus.data  10040128000                       # number of demand (read+write) MSHR miss cycles
system.l2.demand_mshr_miss_latency::total  10142829500                       # number of demand (read+write) MSHR miss cycles
system.l2.overall_mshr_miss_latency::.switch_cpus.inst    102701500                       # number of overall MSHR miss cycles
system.l2.overall_mshr_miss_latency::.switch_cpus.data  10040128000                       # number of overall MSHR miss cycles
system.l2.overall_mshr_miss_latency::total  10142829500                       # number of overall MSHR miss cycles
system.l2.demand_mshr_miss_rate::.switch_cpus.inst     0.632778                       # mshr miss rate for demand accesses
system.l2.demand_mshr_miss_rate::.switch_cpus.data     0.923606                       # mshr miss rate for demand accesses
system.l2.demand_mshr_miss_rate::total       0.918065                       # mshr miss rate for demand accesses
system.l2.overall_mshr_miss_rate::.switch_cpus.inst     0.632778                       # mshr miss rate for overall accesses
system.l2.overall_mshr_miss_rate::.switch_cpus.data     0.923606                       # mshr miss rate for overall accesses
system.l2.overall_mshr_miss_rate::total      0.918065                       # mshr miss rate for overall accesses
system.l2.demand_avg_mshr_miss_latency::.switch_cpus.inst 71122.922438                       # average overall mshr miss latency
system.l2.demand_avg_mshr_miss_latency::.switch_cpus.data 91751.834556                       # average overall mshr miss latency
system.l2.demand_avg_mshr_miss_latency::total 91483.160610                       # average overall mshr miss latency
system.l2.overall_avg_mshr_miss_latency::.switch_cpus.inst 71122.922438                       # average overall mshr miss latency
system.l2.overall_avg_mshr_miss_latency::.switch_cpus.data 91751.834556                       # average overall mshr miss latency
system.l2.overall_avg_mshr_miss_latency::total 91483.160610                       # average overall mshr miss latency
system.l2.replacements                         136852                       # number of replacements
system.l2.WritebackDirty_hits::.writebacks        39083                       # number of WritebackDirty hits
system.l2.WritebackDirty_hits::total            39083                       # number of WritebackDirty hits
system.l2.WritebackDirty_accesses::.writebacks        39083                       # number of WritebackDirty accesses(hits+misses)
system.l2.WritebackDirty_accesses::total        39083                       # number of WritebackDirty accesses(hits+misses)
system.l2.WritebackClean_hits::.writebacks         1773                       # number of WritebackClean hits
system.l2.WritebackClean_hits::total             1773                       # number of WritebackClean hits
system.l2.WritebackClean_accesses::.writebacks         1773                       # number of WritebackClean accesses(hits+misses)
system.l2.WritebackClean_accesses::total         1773                       # number of WritebackClean accesses(hits+misses)
system.l2.CleanEvict_mshr_misses::.writebacks        54812                       # number of CleanEvict MSHR misses
system.l2.CleanEvict_mshr_misses::total         54812                       # number of CleanEvict MSHR misses
system.l2.CleanEvict_mshr_miss_rate::.writebacks          inf                       # mshr miss rate for CleanEvict accesses
system.l2.CleanEvict_mshr_miss_rate::total          inf                       # mshr miss rate for CleanEvict accesses
system.l2.UpgradeReq_misses::.switch_cpus.data            1                       # number of UpgradeReq misses
system.l2.UpgradeReq_misses::total                  1                       # number of UpgradeReq misses
system.l2.UpgradeReq_accesses::.switch_cpus.data            1                       # number of UpgradeReq accesses(hits+misses)
system.l2.UpgradeReq_accesses::total                1                       # number of UpgradeReq accesses(hits+misses)
system.l2.UpgradeReq_miss_rate::.switch_cpus.data            1                       # miss rate for UpgradeReq accesses
system.l2.UpgradeReq_miss_rate::total               1                       # miss rate for UpgradeReq accesses
system.l2.UpgradeReq_mshr_misses::.switch_cpus.data            1                       # number of UpgradeReq MSHR misses
system.l2.UpgradeReq_mshr_misses::total             1                       # number of UpgradeReq MSHR misses
system.l2.UpgradeReq_mshr_miss_latency::.switch_cpus.data        19500                       # number of UpgradeReq MSHR miss cycles
system.l2.UpgradeReq_mshr_miss_latency::total        19500                       # number of UpgradeReq MSHR miss cycles
system.l2.UpgradeReq_mshr_miss_rate::.switch_cpus.data            1                       # mshr miss rate for UpgradeReq accesses
system.l2.UpgradeReq_mshr_miss_rate::total            1                       # mshr miss rate for UpgradeReq accesses
system.l2.UpgradeReq_avg_mshr_miss_latency::.switch_cpus.data        19500                       # average UpgradeReq mshr miss latency
system.l2.UpgradeReq_avg_mshr_miss_latency::total        19500                       # average UpgradeReq mshr miss latency
system.l2.ReadExReq_hits::.switch_cpus.data         2514                       # number of ReadExReq hits
system.l2.ReadExReq_hits::total                  2514                       # number of ReadExReq hits
system.l2.ReadExReq_misses::.switch_cpus.data        33129                       # number of ReadExReq misses
system.l2.ReadExReq_misses::total               33129                       # number of ReadExReq misses
system.l2.ReadExReq_miss_latency::.switch_cpus.data   3275077500                       # number of ReadExReq miss cycles
system.l2.ReadExReq_miss_latency::total    3275077500                       # number of ReadExReq miss cycles
system.l2.ReadExReq_accesses::.switch_cpus.data        35643                       # number of ReadExReq accesses(hits+misses)
system.l2.ReadExReq_accesses::total             35643                       # number of ReadExReq accesses(hits+misses)
system.l2.ReadExReq_miss_rate::.switch_cpus.data     0.929467                       # miss rate for ReadExReq accesses
system.l2.ReadExReq_miss_rate::total         0.929467                       # miss rate for ReadExReq accesses
system.l2.ReadExReq_avg_miss_latency::.switch_cpus.data 98858.326542                       # average ReadExReq miss latency
system.l2.ReadExReq_avg_miss_latency::total 98858.326542                       # average ReadExReq miss latency
system.l2.ReadExReq_mshr_misses::.switch_cpus.data        33129                       # number of ReadExReq MSHR misses
system.l2.ReadExReq_mshr_misses::total          33129                       # number of ReadExReq MSHR misses
system.l2.ReadExReq_mshr_miss_latency::.switch_cpus.data   2943787500                       # number of ReadExReq MSHR miss cycles
system.l2.ReadExReq_mshr_miss_latency::total   2943787500                       # number of ReadExReq MSHR miss cycles
system.l2.ReadExReq_mshr_miss_rate::.switch_cpus.data     0.929467                       # mshr miss rate for ReadExReq accesses
[...]
system.cpu.itb_walker_cache.tags.tag_accesses            0                       # Number of tag accesses
system.cpu.itb_walker_cache.tags.data_accesses            0                       # Number of data accesses
system.cpu.itb.walker.pwrStateResidencyTicks::UNDEFINED 371694124911500                       # Cumulative time (in ticks) in various power states
system.cpu.dtb_walker_cache.pwrStateResidencyTicks::UNDEFINED 371694124911500                       # Cumulative time (in ticks) in various power states
system.cpu.dtb_walker_cache.blocked_cycles::no_mshrs            0                       # number of cycles access was blocked
system.cpu.dtb_walker_cache.blocked_cycles::no_targets            0                       # number of cycles access was blocked
system.cpu.dtb_walker_cache.blocked::no_mshrs            0                       # number of cycles access was blocked
system.cpu.dtb_walker_cache.blocked::no_targets            0                       # number of cycles access was blocked
system.cpu.dtb_walker_cache.avg_blocked_cycles::no_mshrs          nan                       # average number of cycles each access was blocked
system.cpu.dtb_walker_cache.avg_blocked_cycles::no_targets          nan                       # average number of cycles each access was blocked
system.cpu.dtb_walker_cache.replacements            0                       # number of replacements
system.cpu.dtb_walker_cache.tags.pwrStateResidencyTicks::UNDEFINED 371694124911500                       # Cumulative time (in ticks) in various power states
system.cpu.dtb_walker_cache.tags.tagsinuse            0                       # Cycle average of tags in use
system.cpu.dtb_walker_cache.tags.total_refs            0                       # Total number of references to valid blocks.
system.cpu.dtb_walker_cache.tags.sampled_refs            0                       # Sample count of references to valid blocks.
system.cpu.dtb_walker_cache.tags.avg_refs          nan                       # Average number of references to valid blocks.
system.cpu.dtb_walker_cache.tags.warmup_cycle            0                       # Cycle when the warmup percentage was hit.
system.cpu.dtb_walker_cache.tags.tag_accesses            0                       # Number of tag accesses
system.cpu.dtb_walker_cache.tags.data_accesses            0                       # Number of data accesses
system.cpu.dcache.pwrStateResidencyTicks::UNDEFINED 371694124911500                       # Cumulative time (in ticks) in various power states
system.cpu.dcache.demand_hits::.cpu.data            4                       # number of demand (read+write) hits
system.cpu.dcache.demand_hits::.switch_cpus.data     37054625                       # number of demand (read+write) hits
system.cpu.dcache.demand_hits::total         37054629                       # number of demand (read+write) hits
system.cpu.dcache.overall_hits::.cpu.data            4                       # number of overall hits
system.cpu.dcache.overall_hits::.switch_cpus.data     37115828                       # number of overall hits
system.cpu.dcache.overall_hits::total        37115832                       # number of overall hits
system.cpu.dcache.demand_misses::.cpu.data            4                       # number of demand (read+write) misses
system.cpu.dcache.demand_misses::.switch_cpus.data       660390                       # number of demand (read+write) misses
system.cpu.dcache.demand_misses::total         660394                       # number of demand (read+write) misses
system.cpu.dcache.overall_misses::.cpu.data            4                       # number of overall misses
system.cpu.dcache.overall_misses::.switch_cpus.data       672757                       # number of overall misses
system.cpu.dcache.overall_misses::total        672761                       # number of overall misses
system.cpu.dcache.demand_miss_latency::.switch_cpus.data  60584761992                       # number of demand (read+write) miss cycles
system.cpu.dcache.demand_miss_latency::total  60584761992                       # number of demand (read+write) miss cycles
system.cpu.dcache.overall_miss_latency::.switch_cpus.data  60584761992                       # number of overall miss cycles
system.cpu.dcache.overall_miss_latency::total  60584761992                       # number of overall miss cycles
system.cpu.dcache.demand_accesses::.cpu.data            8                       # number of demand (read+write) accesses
system.cpu.dcache.demand_accesses::.switch_cpus.data     37715015                       # number of demand (read+write) accesses
system.cpu.dcache.demand_accesses::total     37715023                       # number of demand (read+write) accesses
system.cpu.dcache.overall_accesses::.cpu.data            8                       # number of overall (read+write) accesses
system.cpu.dcache.overall_accesses::.switch_cpus.data     37788585                       # number of overall (read+write) accesses
system.cpu.dcache.overall_accesses::total     37788593                       # number of overall (read+write) accesses
system.cpu.dcache.demand_miss_rate::.cpu.data     0.500000                       # miss rate for demand accesses
system.cpu.dcache.demand_miss_rate::.switch_cpus.data     0.017510                       # miss rate for demand accesses
system.cpu.dcache.demand_miss_rate::total     0.017510                       # miss rate for demand accesses
system.cpu.dcache.overall_miss_rate::.cpu.data     0.500000                       # miss rate for overall accesses
system.cpu.dcache.overall_miss_rate::.switch_cpus.data     0.017803                       # miss rate for overall accesses
system.cpu.dcache.overall_miss_rate::total     0.017803                       # miss rate for overall accesses
system.cpu.dcache.demand_avg_miss_latency::.switch_cpus.data 91740.883405                       # average overall miss latency
system.cpu.dcache.demand_avg_miss_latency::total 91740.327732                       # average overall miss latency
system.cpu.dcache.overall_avg_miss_latency::.switch_cpus.data 90054.450555                       # average overall miss latency
system.cpu.dcache.overall_avg_miss_latency::total 90053.915123                       # average overall miss latency
system.cpu.dcache.blocked_cycles::no_mshrs      7774892                       # number of cycles access was blocked
system.cpu.dcache.blocked_cycles::no_targets            0                       # number of cycles access was blocked
system.cpu.dcache.blocked::no_mshrs            110631                       # number of cycles access was blocked
system.cpu.dcache.blocked::no_targets               0                       # number of cycles access was blocked
system.cpu.dcache.avg_blocked_cycles::no_mshrs    70.277698                       # average number of cycles each access was blocked
system.cpu.dcache.avg_blocked_cycles::no_targets          nan                       # average number of cycles each access was blocked
system.cpu.dcache.writebacks::.writebacks       146536                       # number of writebacks
system.cpu.dcache.writebacks::total            146536                       # number of writebacks
system.cpu.dcache.demand_mshr_hits::.switch_cpus.data       214373                       # number of demand (read+write) MSHR hits
system.cpu.dcache.demand_mshr_hits::total       214373                       # number of demand (read+write) MSHR hits
system.cpu.dcache.overall_mshr_hits::.switch_cpus.data       214373                       # number of overall MSHR hits
system.cpu.dcache.overall_mshr_hits::total       214373                       # number of overall MSHR hits
system.cpu.dcache.demand_mshr_misses::.switch_cpus.data       446017                       # number of demand (read+write) MSHR misses
system.cpu.dcache.demand_mshr_misses::total       446017                       # number of demand (read+write) MSHR misses
system.cpu.dcache.overall_mshr_misses::.switch_cpus.data       451459                       # number of overall MSHR misses
system.cpu.dcache.overall_mshr_misses::total       451459                       # number of overall MSHR misses
system.cpu.dcache.demand_mshr_miss_latency::.switch_cpus.data  42120428492                       # number of demand (read+write) MSHR miss cycles
system.cpu.dcache.demand_mshr_miss_latency::total  42120428492                       # number of demand (read+write) MSHR miss cycles
system.cpu.dcache.overall_mshr_miss_latency::.switch_cpus.data  42623870992                       # number of overall MSHR miss cycles
system.cpu.dcache.overall_mshr_miss_latency::total  42623870992                       # number of overall MSHR miss cycles
system.cpu.dcache.demand_mshr_miss_rate::.switch_cpus.data     0.011826                       # mshr miss rate for demand accesses
system.cpu.dcache.demand_mshr_miss_rate::total     0.011826                       # mshr miss rate for demand accesses
system.cpu.dcache.overall_mshr_miss_rate::.switch_cpus.data     0.011947                       # mshr miss rate for overall accesses
system.cpu.dcache.overall_mshr_miss_rate::total     0.011947                       # mshr miss rate for overall accesses
system.cpu.dcache.demand_avg_mshr_miss_latency::.switch_cpus.data 94436.823018                       # average overall mshr miss latency
system.cpu.dcache.demand_avg_mshr_miss_latency::total 94436.823018                       # average overall mshr miss latency
system.cpu.dcache.overall_avg_mshr_miss_latency::.switch_cpus.data 94413.603432                       # average overall mshr miss latency
system.cpu.dcache.overall_avg_mshr_miss_latency::total 94413.603432                       # average overall mshr miss latency
system.cpu.dcache.replacements                 450438                       # number of replacements
system.cpu.dcache.ReadReq_hits::.cpu.data            4                       # number of ReadReq hits
system.cpu.dcache.ReadReq_hits::.switch_cpus.data     28199949                       # number of ReadReq hits
system.cpu.dcache.ReadReq_hits::total        28199953                       # number of ReadReq hits
system.cpu.dcache.ReadReq_misses::.cpu.data            4                       # number of ReadReq misses
system.cpu.dcache.ReadReq_misses::.switch_cpus.data       532349                       # number of ReadReq misses
system.cpu.dcache.ReadReq_misses::total        532353                       # number of ReadReq misses
system.cpu.dcache.ReadReq_miss_latency::.switch_cpus.data  48446489000                       # number of ReadReq miss cycles
system.cpu.dcache.ReadReq_miss_latency::total  48446489000                       # number of ReadReq miss cycles
system.cpu.dcache.ReadReq_accesses::.cpu.data            8                       # number of ReadReq accesses(hits+misses)
system.cpu.dcache.ReadReq_accesses::.switch_cpus.data     28732298                       # number of ReadReq accesses(hits+misses)
system.cpu.dcache.ReadReq_accesses::total     28732306                       # number of ReadReq accesses(hits+misses)
system.cpu.dcache.ReadReq_miss_rate::.cpu.data     0.500000                       # miss rate for ReadReq accesses
system.cpu.dcache.ReadReq_miss_rate::.switch_cpus.data     0.018528                       # miss rate for ReadReq accesses
system.cpu.dcache.ReadReq_miss_rate::total     0.018528                       # miss rate for ReadReq accesses
system.cpu.dcache.ReadReq_avg_miss_latency::.switch_cpus.data 91005.128215                       # average ReadReq miss latency
system.cpu.dcache.ReadReq_avg_miss_latency::total 91004.444419                       # average ReadReq miss latency
system.cpu.dcache.ReadReq_mshr_hits::.switch_cpus.data       214267                       # number of ReadReq MSHR hits
system.cpu.dcache.ReadReq_mshr_hits::total       214267                       # number of ReadReq MSHR hits
system.cpu.dcache.ReadReq_mshr_misses::.switch_cpus.data       318082                       # number of ReadReq MSHR misses
system.cpu.dcache.ReadReq_mshr_misses::total       318082                       # number of ReadReq MSHR misses
system.cpu.dcache.ReadReq_mshr_miss_latency::.switch_cpus.data  30111722500                       # number of ReadReq MSHR miss cycles
system.cpu.dcache.ReadReq_mshr_miss_latency::total  30111722500                       # number of ReadReq MSHR miss cycles
system.cpu.dcache.ReadReq_mshr_miss_rate::.switch_cpus.data     0.011071                       # mshr miss rate for ReadReq accesses
system.cpu.dcache.ReadReq_mshr_miss_rate::total     0.011071                       # mshr miss rate for ReadReq accesses
system.cpu.dcache.ReadReq_avg_mshr_miss_latency::.switch_cpus.data 94666.540389                       # average ReadReq mshr miss latency
system.cpu.dcache.ReadReq_avg_mshr_miss_latency::total 94666.540389                       # average ReadReq mshr miss latency
system.cpu.dcache.WriteReq_hits::.switch_cpus.data      8854676                       # number of WriteReq hits
system.cpu.dcache.WriteReq_hits::total        8854676                       # number of WriteReq hits
system.cpu.dcache.WriteReq_misses::.switch_cpus.data       128041                       # number of WriteReq misses
system.cpu.dcache.WriteReq_misses::total       128041                       # number of WriteReq misses
system.cpu.dcache.WriteReq_miss_latency::.switch_cpus.data  12138272992                       # number of WriteReq miss cycles
system.cpu.dcache.WriteReq_miss_latency::total  12138272992                       # number of WriteReq miss cycles
system.cpu.dcache.WriteReq_accesses::.switch_cpus.data      8982717                       # number of WriteReq accesses(hits+misses)
system.cpu.dcache.WriteReq_accesses::total      8982717                       # number of WriteReq accesses(hits+misses)
system.cpu.dcache.WriteReq_miss_rate::.switch_cpus.data     0.014254                       # miss rate for WriteReq accesses
system.cpu.dcache.WriteReq_miss_rate::total     0.014254                       # miss rate for WriteReq accesses
system.cpu.dcache.WriteReq_avg_miss_latency::.switch_cpus.data 94799.892160                       # average WriteReq miss latency
system.cpu.dcache.WriteReq_avg_miss_latency::total 94799.892160                       # average WriteReq miss latency
system.cpu.dcache.WriteReq_mshr_hits::.switch_cpus.data          106                       # number of WriteReq MSHR hits
system.cpu.dcache.WriteReq_mshr_hits::total          106                       # number of WriteReq MSHR hits
system.cpu.dcache.WriteReq_mshr_misses::.switch_cpus.data       127935                       # number of WriteReq MSHR misses
system.cpu.dcache.WriteReq_mshr_misses::total       127935                       # number of WriteReq MSHR misses
system.cpu.dcache.WriteReq_mshr_miss_latency::.switch_cpus.data  12008705992                       # number of WriteReq MSHR miss cycles
system.cpu.dcache.WriteReq_mshr_miss_latency::total  12008705992                       # number of WriteReq MSHR miss cycles
system.cpu.dcache.WriteReq_mshr_miss_rate::.switch_cpus.data     0.014242                       # mshr miss rate for WriteReq accesses
system.cpu.dcache.WriteReq_mshr_miss_rate::total     0.014242                       # mshr miss rate for WriteReq accesses
system.cpu.dcache.WriteReq_avg_mshr_miss_latency::.switch_cpus.data 93865.681729                       # average WriteReq mshr miss latency
system.cpu.dcache.WriteReq_avg_mshr_miss_latency::total 93865.681729                       # average WriteReq mshr miss latency
system.cpu.dcache.SoftPFReq_hits::.switch_cpus.data        61203                       # number of SoftPFReq hits
system.cpu.dcache.SoftPFReq_hits::total         61203                       # number of SoftPFReq hits
system.cpu.dcache.SoftPFReq_misses::.switch_cpus.data        12367                       # number of SoftPFReq misses
system.cpu.dcache.SoftPFReq_misses::total        12367                       # number of SoftPFReq misses
system.cpu.dcache.SoftPFReq_accesses::.switch_cpus.data        73570                       # number of SoftPFReq accesses(hits+misses)
system.cpu.dcache.SoftPFReq_accesses::total        73570                       # number of SoftPFReq accesses(hits+misses)
system.cpu.dcache.SoftPFReq_miss_rate::.switch_cpus.data     0.168098                       # miss rate for SoftPFReq accesses
system.cpu.dcache.SoftPFReq_miss_rate::total     0.168098                       # miss rate for SoftPFReq accesses
system.cpu.dcache.SoftPFReq_mshr_misses::.switch_cpus.data         5442                       # number of SoftPFReq MSHR misses
system.cpu.dcache.SoftPFReq_mshr_misses::total         5442                       # number of SoftPFReq MSHR misses
system.cpu.dcache.SoftPFReq_mshr_miss_latency::.switch_cpus.data    503442500                       # number of SoftPFReq MSHR miss cycles
system.cpu.dcache.SoftPFReq_mshr_miss_latency::total    503442500                       # number of SoftPFReq MSHR miss cycles
system.cpu.dcache.SoftPFReq_mshr_miss_rate::.switch_cpus.data     0.073970                       # mshr miss rate for SoftPFReq accesses
system.cpu.dcache.SoftPFReq_mshr_miss_rate::total     0.073970                       # mshr miss rate for SoftPFReq accesses
system.cpu.dcache.SoftPFReq_avg_mshr_miss_latency::.switch_cpus.data 92510.565968                       # average SoftPFReq mshr miss latency
system.cpu.dcache.SoftPFReq_avg_mshr_miss_latency::total 92510.565968                       # average SoftPFReq mshr miss latency
system.cpu.dcache.tags.pwrStateResidencyTicks::UNDEFINED 371694124911500                       # Cumulative time (in ticks) in various power states
system.cpu.dcache.tags.tagsinuse             0.090805                       # Cycle average of tags in use
system.cpu.dcache.tags.total_refs            37567295                       # Total number of references to valid blocks.
system.cpu.dcache.tags.sampled_refs            451462                       # Sample count of references to valid blocks.
system.cpu.dcache.tags.avg_refs             83.212530                       # Average number of references to valid blocks.
system.cpu.dcache.tags.warmup_cycle      371661094883500                       # Cycle when the warmup percentage was hit.
system.cpu.dcache.tags.occ_blocks::.cpu.data     0.000004                       # Average occupied blocks per requestor
system.cpu.dcache.tags.occ_blocks::.switch_cpus.data     0.090802                       # Average occupied blocks per requestor
system.cpu.dcache.tags.occ_percent::.cpu.data     0.000000                       # Average percentage of cache occupancy
system.cpu.dcache.tags.occ_percent::.switch_cpus.data     0.000089                       # Average percentage of cache occupancy
system.cpu.dcache.tags.occ_percent::total     0.000089                       # Average percentage of cache occupancy
system.cpu.dcache.tags.occ_task_id_blocks::1024         1024                       # Occupied blocks per task id
system.cpu.dcache.tags.age_task_id_blocks_1024::0          116                       # Occupied blocks per task id
system.cpu.dcache.tags.age_task_id_blocks_1024::1          757                       # Occupied blocks per task id
system.cpu.dcache.tags.age_task_id_blocks_1024::2          139                       # Occupied blocks per task id
system.cpu.dcache.tags.age_task_id_blocks_1024::3           12                       # Occupied blocks per task id
system.cpu.dcache.tags.occ_task_id_percent::1024            1                       # Percentage of cache occupancy per task id
system.cpu.dcache.tags.tag_accesses          76028648                       # Number of tag accesses
system.cpu.dcache.tags.data_accesses         76028648                       # Number of data accesses

---------- End Simulation Statistics   ----------
