
---------- Begin Simulation Statistics ----------
final_tick                               92837381116000                       # Number of ticks from beginning of simulation (restored from checkpoints and never reset)
host_inst_rate                                  23928                       # Simulator instruction rate (inst/s)
host_mem_usage                                 827752                       # Number of bytes of host memory used
host_op_rate                                    38775                       # Simulator op (including micro ops) rate (op/s)
host_seconds                                   417.91                       # Real time elapsed on the host
host_tick_rate                              134682158                       # Simulator tick rate (ticks/s)
sim_freq                                 1000000000000                       # Frequency of simulated ticks
sim_insts                                    10000010                       # Number of instructions simulated
sim_ops                                      16204568                       # Number of ops (including micro ops) simulated
sim_seconds                                  0.056286                       # Number of seconds simulated
sim_ticks                                 56285689750                       # Number of ticks simulated
system.cpu.Branches                                 3                       # Number of branches fetched
system.cpu.committedInsts                          10                       # Number of instructions committed
system.cpu.committedOps                            18                       # Number of ops (including micro ops) committed
system.cpu.dtb.rdAccesses                           4                       # TLB accesses on read requests
system.cpu.dtb.rdMisses                             0                       # TLB misses on read requests
system.cpu.dtb.wrAccesses                           0                       # TLB accesses on write requests
system.cpu.dtb.wrMisses                             0                       # TLB misses on write requests
system.cpu.idle_fraction                            0                       # Percentage of idle cycles
system.cpu.itb.rdAccesses                           0                       # TLB accesses on read requests
system.cpu.itb.rdMisses                             0                       # TLB misses on read requests
system.cpu.itb.wrAccesses                          13                       # TLB accesses on write requests
system.cpu.itb.wrMisses                             0                       # TLB misses on write requests
system.cpu.not_idle_fraction                        1                       # Percentage of non-idle cycles
system.cpu.numCycles                               21                       # number of cpu cycles simulated
system.cpu.numWorkItemsCompleted                    0                       # number of work items this cpu completed
system.cpu.numWorkItemsStarted                      0                       # number of work items this cpu started
system.cpu.num_busy_cycles                         21                       # Number of busy cycles
system.cpu.num_cc_register_reads                   16                       # number of times the CC registers were read
system.cpu.num_cc_register_writes                   8                       # number of times the CC registers were written
system.cpu.num_conditional_control_insts            3                       # number of instructions that are conditional controls
system.cpu.num_fp_alu_accesses                      0                       # Number of float alu accesses
system.cpu.num_fp_insts                             0                       # number of float instructions
system.cpu.num_fp_register_reads                    0                       # number of times the floating registers were read
system.cpu.num_fp_register_writes                   0                       # number of times the floating registers were written
system.cpu.num_func_calls                           0                       # number of times a function call or return occured
system.cpu.num_idle_cycles                          0                       # Number of idle cycles
system.cpu.num_int_alu_accesses                    18                       # Number of integer alu accesses
system.cpu.num_int_insts                           18                       # number of integer instructions
system.cpu.num_int_register_reads                  33                       # number of times the integer registers were read
system.cpu.num_int_register_writes                 15                       # number of times the integer registers were written
system.cpu.num_load_insts                           4                       # Number of load instructions
system.cpu.num_mem_refs                             4                       # number of memory refs
system.cpu.num_store_insts                          0                       # Number of store instructions
system.cpu.num_vec_alu_accesses                     0                       # Number of vector alu accesses
system.cpu.num_vec_insts                            0                       # number of vector instructions
system.cpu.num_vec_register_reads                   0                       # number of times the vector registers were read
system.cpu.num_vec_register_writes                  0                       # number of times the vector registers were written
system.cpu.op_class::No_OpClass                     0      0.00%      0.00% # Class of executed instruction
system.cpu.op_class::IntAlu                        14     77.78%     77.78% # Class of executed instruction
system.cpu.op_class::IntMult                        0      0.00%     77.78% # Class of executed instruction
system.cpu.op_class::IntDiv                         0      0.00%     77.78% # Class of executed instruction
system.cpu.op_class::FloatAdd                       0      0.00%     77.78% # Class of executed instruction
system.cpu.op_class::FloatCmp                       0      0.00%     77.78% # Class of executed instruction
system.cpu.op_class::FloatCvt                       0      0.00%     77.78% # Class of executed instruction
system.cpu.op_class::FloatMult                      0      0.00%     77.78% # Class of executed instruction
system.cpu.op_class::FloatMultAcc                   0      0.00%     77.78% # Class of executed instruction
system.cpu.op_class::FloatDiv                       0      0.00%     77.78% # Class of executed instruction
system.cpu.op_class::FloatMisc                      0      0.00%     77.78% # Class of executed instruction
system.cpu.op_class::FloatSqrt                      0      0.00%     77.78% # Class of executed instruction
system.cpu.op_class::SimdAdd                        0      0.00%     77.78% # Class of executed instruction
system.cpu.op_class::SimdAddAcc                     0      0.00%     77.78% # Class of executed instruction
system.cpu.op_class::SimdAlu                        0      0.00%     77.78% # Class of executed instruction
system.cpu.op_class::SimdCmp                        0      0.00%     77.78% # Class of executed instruction
system.cpu.op_class::SimdCvt                        0      0.00%     77.78% # Class of executed instruction
system.cpu.op_class::SimdMisc                       0      0.00%     77.78% # Class of executed instruction
system.cpu.op_class::SimdMult                       0      0.00%     77.78% # Class of executed instruction
system.cpu.op_class::SimdMultAcc                    0      0.00%     77.78% # Class of executed instruction
system.cpu.op_class::SimdShift                      0      0.00%     77.78% # Class of executed instruction
system.cpu.op_class::SimdShiftAcc                   0      0.00%     77.78% # Class of executed instruction
system.cpu.op_class::SimdDiv                        0      0.00%     77.78% # Class of executed instruction
system.cpu.op_class::SimdSqrt                       0      0.00%     77.78% # Class of executed instruction
system.cpu.op_class::SimdFloatAdd                   0      0.00%     77.78% # Class of executed instruction
system.cpu.op_class::SimdFloatAlu                   0      0.00%     77.78% # Class of executed instruction
system.cpu.op_class::SimdFloatCmp                   0      0.00%     77.78% # Class of executed instruction
system.cpu.op_class::SimdFloatCvt                   0      0.00%     77.78% # Class of executed instruction
system.cpu.op_class::SimdFloatDiv                   0      0.00%     77.78% # Class of executed instruction
system.cpu.op_class::SimdFloatMisc                  0      0.00%     77.78% # Class of executed instruction
system.cpu.op_class::SimdFloatMult                  0      0.00%     77.78% # Class of executed instruction
system.cpu.op_class::SimdFloatMultAcc               0      0.00%     77.78% # Class of executed instruction
system.cpu.op_class::SimdFloatSqrt                  0      0.00%     77.78% # Class of executed instruction
system.cpu.op_class::SimdReduceAdd                  0      0.00%     77.78% # Class of executed instruction
system.cpu.op_class::SimdReduceAlu                  0      0.00%     77.78% # Class of executed instruction
system.cpu.op_class::SimdReduceCmp                  0      0.00%     77.78% # Class of executed instruction
system.cpu.op_class::SimdFloatReduceAdd             0      0.00%     77.78% # Class of executed instruction
system.cpu.op_class::SimdFloatReduceCmp             0      0.00%     77.78% # Class of executed instruction
system.cpu.op_class::SimdAes                        0      0.00%     77.78% # Class of executed instruction
system.cpu.op_class::SimdAesMix                     0      0.00%     77.78% # Class of executed instruction
system.cpu.op_class::SimdSha1Hash                   0      0.00%     77.78% # Class of executed instruction
system.cpu.op_class::SimdSha1Hash2                  0      0.00%     77.78% # Class of executed instruction
system.cpu.op_class::SimdSha256Hash                 0      0.00%     77.78% # Class of executed instruction
system.cpu.op_class::SimdSha256Hash2                0      0.00%     77.78% # Class of executed instruction
system.cpu.op_class::SimdShaSigma2                  0      0.00%     77.78% # Class of executed instruction
system.cpu.op_class::SimdShaSigma3                  0      0.00%     77.78% # Class of executed instruction
system.cpu.op_class::SimdPredAlu                    0      0.00%     77.78% # Class of executed instruction
system.cpu.op_class::MemRead                        4     22.22%    100.00% # Class of executed instruction
system.cpu.op_class::MemWrite                       0      0.00%    100.00% # Class of executed instruction
system.cpu.op_class::FloatMemRead                   0      0.00%    100.00% # Class of executed instruction
system.cpu.op_class::FloatMemWrite                  0      0.00%    100.00% # Class of executed instruction
system.cpu.op_class::IprAccess                      0      0.00%    100.00% # Class of executed instruction
system.cpu.op_class::InstPrefetch                   0      0.00%    100.00% # Class of executed instruction
system.cpu.op_class::total                         18                       # Class of executed instruction
system.cpu.workload.numSyscalls                     0                       # Number of system calls
system.l2.prefetcher.num_hwpf_issued          1054767                       # number of hwpf issued
system.l2.prefetcher.pfBufferHit                   98                       # number of redundant prefetches already in prefetch queue
system.l2.prefetcher.pfIdentified             1054985                       # number of prefetch candidates identified
system.l2.prefetcher.pfInCache                      0                       # number of redundant prefetches already in cache/mshr dropped
system.l2.prefetcher.pfRemovedFull                  0                       # number of prefetches dropped due to prefetch queue size
system.l2.prefetcher.pfSpanPage                311455                       # number of prefetches that crossed the page
system.membus.snoop_filter.hit_multi_requests            0                       # Number of requests hitting in the snoop filter with multiple (>1) holders of the requested data.
system.membus.snoop_filter.hit_multi_snoops            0                       # Number of snoops hitting in the snoop filter with multiple (>1) holders of the requested data.
system.membus.snoop_filter.hit_single_requests      1901307                       # Number of requests hitting in the snoop filter with a single holder of the requested data.
system.membus.snoop_filter.hit_single_snoops            0                       # Number of snoops hitting in the snoop filter with a single holder of the requested data.
system.membus.snoop_filter.tot_requests       3806730                       # Total number of requests made to the snoop filter.
system.membus.snoop_filter.tot_snoops               0                       # Total number of snoops made to the snoop filter.
system.switch_cpus.branchPred.BTBCorrect            0                       # Number of correct BTB predictions (this stat may not work properly.
system.switch_cpus.branchPred.BTBHitPct      0.000000                       # BTB Hit Percentage
system.switch_cpus.branchPred.BTBHits               0                       # Number of BTB hits
system.switch_cpus.branchPred.BTBLookups      2066411                       # Number of BTB lookups
system.switch_cpus.branchPred.RASInCorrect            0                       # Number of incorrect RAS predictions.
system.switch_cpus.branchPred.condIncorrect       176348                       # Number of conditional branches incorrect
system.switch_cpus.branchPred.condPredicted      4356879                       # Number of conditional branches predicted
system.switch_cpus.branchPred.indirectHits      1615954                       # Number of indirect target hits.
system.switch_cpus.branchPred.indirectLookups      2066411                       # Number of indirect predictor lookups.
system.switch_cpus.branchPred.indirectMisses       450457                       # Number of indirect misses.
system.switch_cpus.branchPred.lookups         4364931                       # Number of BP lookups
system.switch_cpus.branchPred.usedRAS             225                       # Number of times the RAS was used to get a target.
system.switch_cpus.branchPredindirectMispredicted        27009                       # Number of mispredicted indirect branches.
system.switch_cpus.cc_regfile_reads          12896375                       # number of cc regfile reads
system.switch_cpus.cc_regfile_writes          9441159                       # number of cc regfile writes
system.switch_cpus.commit.amos                      0                       # Number of atomic instructions committed
system.switch_cpus.commit.branchMispredicts       176358                       # The number of times a branch was mispredicted
system.switch_cpus.commit.branches            1904056                       # Number of branches committed
system.switch_cpus.commit.bw_lim_events        676916                       # number cycles where commit BW limit reached
system.switch_cpus.commit.commitSquashedInsts     15283718                       # The number of squashed insts skipped by commit
system.switch_cpus.commit.committedInsts     10000000                       # Number of instructions committed
system.switch_cpus.commit.committedOps       16204550                       # Number of ops (including micro ops) committed
system.switch_cpus.commit.committed_per_cycle::samples    110474915                       # Number of insts commited each cycle
system.switch_cpus.commit.committed_per_cycle::mean     0.146681                       # Number of insts commited each cycle
system.switch_cpus.commit.committed_per_cycle::stdev     0.808887                       # Number of insts commited each cycle
system.switch_cpus.commit.committed_per_cycle::underflows            0      0.00%      0.00% # Number of insts commited each cycle
system.switch_cpus.commit.committed_per_cycle::0    104593784     94.68%     94.68% # Number of insts commited each cycle
system.switch_cpus.commit.committed_per_cycle::1      2368685      2.14%     96.82% # Number of insts commited each cycle
system.switch_cpus.commit.committed_per_cycle::2      1302565      1.18%     98.00% # Number of insts commited each cycle
system.switch_cpus.commit.committed_per_cycle::3       787218      0.71%     98.71% # Number of insts commited each cycle
system.switch_cpus.commit.committed_per_cycle::4       481409      0.44%     99.15% # Number of insts commited each cycle
system.switch_cpus.commit.committed_per_cycle::5       104002      0.09%     99.24% # Number of insts commited each cycle
system.switch_cpus.commit.committed_per_cycle::6       114245      0.10%     99.35% # Number of insts commited each cycle
system.switch_cpus.commit.committed_per_cycle::7        46091      0.04%     99.39% # Number of insts commited each cycle
system.switch_cpus.commit.committed_per_cycle::8       676916      0.61%    100.00% # Number of insts commited each cycle
system.switch_cpus.commit.committed_per_cycle::overflows            0      0.00%    100.00% # Number of insts commited each cycle
system.switch_cpus.commit.committed_per_cycle::min_value            0                       # Number of insts commited each cycle
system.switch_cpus.commit.committed_per_cycle::max_value            8                       # Number of insts commited each cycle
system.switch_cpus.commit.committed_per_cycle::total    110474915                       # Number of insts commited each cycle
system.switch_cpus.commit.fp_insts                  0                       # Number of committed floating point instructions.
system.switch_cpus.commit.function_calls            0                       # Number of function calls committed.
system.switch_cpus.commit.int_insts          16204186                       # Number of committed integer instructions.
system.switch_cpus.commit.loads               3567032                       # Number of loads committed
system.switch_cpus.commit.membars                   0                       # Number of memory barriers committed
system.switch_cpus.commit.op_class_0::No_OpClass            0      0.00%      0.00% # Class of committed instruction
system.switch_cpus.commit.op_class_0::IntAlu     11575705     71.43%     71.43% # Class of committed instruction
system.switch_cpus.commit.op_class_0::IntMult            0      0.00%     71.43% # Class of committed instruction
system.switch_cpus.commit.op_class_0::IntDiv            0      0.00%     71.43% # Class of committed instruction
system.switch_cpus.commit.op_class_0::FloatAdd            0      0.00%     71.43% # Class of committed instruction
system.switch_cpus.commit.op_class_0::FloatCmp            0      0.00%     71.43% # Class of committed instruction
system.switch_cpus.commit.op_class_0::FloatCvt            0      0.00%     71.43% # Class of committed instruction
system.switch_cpus.commit.op_class_0::FloatMult            0      0.00%     71.43% # Class of committed instruction
system.switch_cpus.commit.op_class_0::FloatMultAcc            0      0.00%     71.43% # Class of committed instruction
system.switch_cpus.commit.op_class_0::FloatDiv            0      0.00%     71.43% # Class of committed instruction
system.switch_cpus.commit.op_class_0::FloatMisc            0      0.00%     71.43% # Class of committed instruction
system.switch_cpus.commit.op_class_0::FloatSqrt            0      0.00%     71.43% # Class of committed instruction
system.switch_cpus.commit.op_class_0::SimdAdd            0      0.00%     71.43% # Class of committed instruction
system.switch_cpus.commit.op_class_0::SimdAddAcc            0      0.00%     71.43% # Class of committed instruction
system.switch_cpus.commit.op_class_0::SimdAlu            0      0.00%     71.43% # Class of committed instruction
system.switch_cpus.commit.op_class_0::SimdCmp            0      0.00%     71.43% # Class of committed instruction
system.switch_cpus.commit.op_class_0::SimdCvt            0      0.00%     71.43% # Class of committed instruction
system.switch_cpus.commit.op_class_0::SimdMisc            0      0.00%     71.43% # Class of committed instruction
system.switch_cpus.commit.op_class_0::SimdMult            0      0.00%     71.43% # Class of committed instruction
system.switch_cpus.commit.op_class_0::SimdMultAcc            0      0.00%     71.43% # Class of committed instruction
system.switch_cpus.commit.op_class_0::SimdShift            0      0.00%     71.43% # Class of committed instruction
system.switch_cpus.commit.op_class_0::SimdShiftAcc            0      0.00%     71.43% # Class of committed instruction
system.switch_cpus.commit.op_class_0::SimdDiv            0      0.00%     71.43% # Class of committed instruction
system.switch_cpus.commit.op_class_0::SimdSqrt            0      0.00%     71.43% # Class of committed instruction
system.switch_cpus.commit.op_class_0::SimdFloatAdd            0      0.00%     71.43% # Class of committed instruction
system.switch_cpus.commit.op_class_0::SimdFloatAlu            0      0.00%     71.43% # Class of committed instruction
system.switch_cpus.commit.op_class_0::SimdFloatCmp            0      0.00%     71.43% # Class of committed instruction
system.switch_cpus.commit.op_class_0::SimdFloatCvt            0      0.00%     71.43% # Class of committed instruction
system.switch_cpus.commit.op_class_0::SimdFloatDiv            0      0.00%     71.43% # Class of committed instruction
system.switch_cpus.commit.op_class_0::SimdFloatMisc            0      0.00%     71.43% # Class of committed instruction
system.switch_cpus.commit.op_class_0::SimdFloatMult            0      0.00%     71.43% # Class of committed instruction
system.switch_cpus.commit.op_class_0::SimdFloatMultAcc            0      0.00%     71.43% # Class of committed instruction
system.switch_cpus.commit.op_class_0::SimdFloatSqrt            0      0.00%     71.43% # Class of committed instruction
system.switch_cpus.commit.op_class_0::SimdReduceAdd            0      0.00%     71.43% # Class of committed instruction
system.switch_cpus.commit.op_class_0::SimdReduceAlu            0      0.00%     71.43% # Class of committed instruction
system.switch_cpus.commit.op_class_0::SimdReduceCmp            0      0.00%     71.43% # Class of committed instruction
system.switch_cpus.commit.op_class_0::SimdFloatReduceAdd            0      0.00%     71.43% # Class of committed instruction
system.switch_cpus.commit.op_class_0::SimdFloatReduceCmp            0      0.00%     71.43% # Class of committed instruction
system.switch_cpus.commit.op_class_0::SimdAes            0      0.00%     71.43% # Class of committed instruction
system.switch_cpus.commit.op_class_0::SimdAesMix            0      0.00%     71.43% # Class of committed instruction
system.switch_cpus.commit.op_class_0::SimdSha1Hash            0      0.00%     71.43% # Class of committed instruction
system.switch_cpus.commit.op_class_0::SimdSha1Hash2            0      0.00%     71.43% # Class of committed instruction
system.switch_cpus.commit.op_class_0::SimdSha256Hash            0      0.00%     71.43% # Class of committed instruction
system.switch_cpus.commit.op_class_0::SimdSha256Hash2            0      0.00%     71.43% # Class of committed instruction
system.switch_cpus.commit.op_class_0::SimdShaSigma2            0      0.00%     71.43% # Class of committed instruction
system.switch_cpus.commit.op_class_0::SimdShaSigma3            0      0.00%     71.43% # Class of committed instruction
system.switch_cpus.commit.op_class_0::SimdPredAlu            0      0.00%     71.43% # Class of committed instruction
system.switch_cpus.commit.op_class_0::MemRead      3567032     22.01%     93.45% # Class of committed instruction
system.switch_cpus.commit.op_class_0::MemWrite      1061813      6.55%    100.00% # Class of committed instruction
system.switch_cpus.commit.op_class_0::FloatMemRead            0      0.00%    100.00% # Class of committed instruction
system.switch_cpus.commit.op_class_0::FloatMemWrite            0      0.00%    100.00% # Class of committed instruction
system.switch_cpus.commit.op_class_0::IprAccess            0      0.00%    100.00% # Class of committed instruction
system.switch_cpus.commit.op_class_0::InstPrefetch            0      0.00%    100.00% # Class of committed instruction
system.switch_cpus.commit.op_class_0::total     16204550                       # Class of committed instruction
system.switch_cpus.commit.refs                4628845                       # Number of memory references committed
system.switch_cpus.commit.swp_count                 0                       # Number of s/w prefetches committed
system.switch_cpus.commit.vec_insts                 0                       # Number of committed Vector instructions.
system.switch_cpus.committedInsts            10000000                       # Number of Instructions Simulated
system.switch_cpus.committedOps              16204550                       # Number of Ops (including micro ops) Simulated
system.switch_cpus.cpi                      11.257136                       # CPI: Cycles Per Instruction
system.switch_cpus.cpi_total                11.257136                       # CPI: Total CPI of All Threads
system.switch_cpus.decode.BlockedCycles     106326905                       # Number of cycles decode is blocked
system.switch_cpus.decode.DecodedInsts       33079167                       # Number of instructions handled by decode
system.switch_cpus.decode.IdleCycles          1633900                       # Number of cycles decode is idle
system.switch_cpus.decode.RunCycles           2704956                       # Number of cycles decode is running
system.switch_cpus.decode.SquashCycles         176551                       # Number of cycles decode is squashing
system.switch_cpus.decode.UnblockCycles       1727833                       # Number of cycles decode is unblocking
system.switch_cpus.dtb.rdAccesses             4719912                       # TLB accesses on read requests
system.switch_cpus.dtb.rdMisses                 44500                       # TLB misses on read requests
system.switch_cpus.dtb.wrAccesses             1575051                       # TLB accesses on write requests
system.switch_cpus.dtb.wrMisses                  1616                       # TLB misses on write requests
system.switch_cpus.fetch.Branches             4364931                       # Number of branches that fetch encountered
system.switch_cpus.fetch.CacheLines           2971128                       # Number of cache lines fetched
system.switch_cpus.fetch.Cycles             109307255                       # Number of cycles fetch has run and was not squashing or blocked
system.switch_cpus.fetch.IcacheSquashes         20416                       # Number of outstanding Icache misses that were squashed
system.switch_cpus.fetch.Insts               23922029                       # Number of instructions fetch has processed
system.switch_cpus.fetch.MiscStallCycles           10                       # Number of cycles fetch has spent waiting on interrupts, or bad addresses, or out of MSHRs
system.switch_cpus.fetch.PendingTrapStallCycles         1480                       # Number of stall cycles due to pending traps
system.switch_cpus.fetch.SquashCycles          353102                       # Number of cycles fetch has spent squashing
system.switch_cpus.fetch.branchRate          0.038775                       # Number of branch fetches per cycle
system.switch_cpus.fetch.icacheStallCycles      3084858                       # Number of cycles fetch is stalled on an Icache miss
system.switch_cpus.fetch.predictedBranches      1616179                       # Number of branches that fetch has predicted taken
system.switch_cpus.fetch.rate                0.212505                       # Number of inst fetches per cycle
system.switch_cpus.fetch.rateDist::samples    112570154                       # Number of instructions fetched each cycle (Total)
system.switch_cpus.fetch.rateDist::mean      0.340599                       # Number of instructions fetched each cycle (Total)
system.switch_cpus.fetch.rateDist::stdev     1.496086                       # Number of instructions fetched each cycle (Total)
system.switch_cpus.fetch.rateDist::underflows            0      0.00%      0.00% # Number of instructions fetched each cycle (Total)
system.switch_cpus.fetch.rateDist::0        106304526     94.43%     94.43% # Number of instructions fetched each cycle (Total)
system.switch_cpus.fetch.rateDist::1           135958      0.12%     94.55% # Number of instructions fetched each cycle (Total)
system.switch_cpus.fetch.rateDist::2           600395      0.53%     95.09% # Number of instructions fetched each cycle (Total)
system.switch_cpus.fetch.rateDist::3           329918      0.29%     95.38% # Number of instructions fetched each cycle (Total)
system.switch_cpus.fetch.rateDist::4           479779      0.43%     95.81% # Number of instructions fetched each cycle (Total)
system.switch_cpus.fetch.rateDist::5           400659      0.36%     96.16% # Number of instructions fetched each cycle (Total)
system.switch_cpus.fetch.rateDist::6          1147703      1.02%     97.18% # Number of instructions fetched each cycle (Total)
system.switch_cpus.fetch.rateDist::7           163539      0.15%     97.33% # Number of instructions fetched each cycle (Total)
system.switch_cpus.fetch.rateDist::8          3007677      2.67%    100.00% # Number of instructions fetched each cycle (Total)
system.switch_cpus.fetch.rateDist::overflows            0      0.00%    100.00% # Number of instructions fetched each cycle (Total)
system.switch_cpus.fetch.rateDist::min_value            0                       # Number of instructions fetched each cycle (Total)
system.switch_cpus.fetch.rateDist::max_value            8                       # Number of instructions fetched each cycle (Total)
system.switch_cpus.fetch.rateDist::total    112570154                       # Number of instructions fetched each cycle (Total)
system.switch_cpus.fp_regfile_writes               56                       # number of floating regfile writes
system.switch_cpus.idleCycles                    1204                       # Total number of cycles that the CPU has spent unscheduled due to idling
system.switch_cpus.iew.branchMispredicts       190020                       # Number of branch mispredicts detected at execute
system.switch_cpus.iew.exec_branches          2343571                       # Number of branches executed
system.switch_cpus.iew.exec_nop                     0                       # number of nop insts executed
system.switch_cpus.iew.exec_rate             0.216720                       # Inst execution rate
system.switch_cpus.iew.exec_refs              6570163                       # number of memory reference insts executed
system.switch_cpus.iew.exec_stores            1575051                       # Number of stores executed
system.switch_cpus.iew.exec_swp                     0                       # number of swp insts executed
system.switch_cpus.iew.iewBlockCycles        79173593                       # Number of cycles IEW is blocking
system.switch_cpus.iew.iewDispLoadInsts       6811965                       # Number of dispatched load instructions
system.switch_cpus.iew.iewDispNonSpecInsts            0                       # Number of dispatched non-speculative instructions
system.switch_cpus.iew.iewDispSquashedInsts         4893                       # Number of squashed instructions skipped by dispatch
system.switch_cpus.iew.iewDispStoreInsts      2315957                       # Number of dispatched store instructions
system.switch_cpus.iew.iewDispatchedInsts     31478963                       # Number of instructions dispatched to IQ
system.switch_cpus.iew.iewExecLoadInsts       4995112                       # Number of load instructions executed
system.switch_cpus.iew.iewExecSquashedInsts       214012                       # Number of squashed instructions skipped in execute
system.switch_cpus.iew.iewExecutedInsts      24396454                       # Number of executed instructions
system.switch_cpus.iew.iewIQFullEvents         472028                       # Number of times the IQ has become full, causing a stall
system.switch_cpus.iew.iewIdleCycles                0                       # Number of cycles IEW is idle
system.switch_cpus.iew.iewLSQFullEvents        965419                       # Number of times the LSQ has become full, causing a stall
system.switch_cpus.iew.iewSquashCycles         176551                       # Number of cycles IEW is squashing
system.switch_cpus.iew.iewUnblockCycles       2149712                       # Number of cycles IEW is unblocking
system.switch_cpus.iew.lsq.thread0.blockedLoads            0                       # Number of blocked loads due to partial load-store forwarding
system.switch_cpus.iew.lsq.thread0.cacheBlocked       140117                       # Number of times an access to memory failed due to the cache being blocked
system.switch_cpus.iew.lsq.thread0.forwLoads        35062                       # Number of loads that had data forwarded from stores
system.switch_cpus.iew.lsq.thread0.ignoredResponses           22                       # Number of memory responses ignored because the instruction is squashed
system.switch_cpus.iew.lsq.thread0.invAddrLoads            0                       # Number of loads ignored due to an invalid address
system.switch_cpus.iew.lsq.thread0.invAddrSwpfs            0                       # Number of software prefetches ignored due to an invalid address
system.switch_cpus.iew.lsq.thread0.memOrderViolation          259                       # Number of memory ordering violations
system.switch_cpus.iew.lsq.thread0.rescheduledLoads            0                       # Number of loads that were rescheduled
system.switch_cpus.iew.lsq.thread0.squashedLoads      3244909                       # Number of loads squashed
system.switch_cpus.iew.lsq.thread0.squashedStores      1254144                       # Number of stores squashed
system.switch_cpus.iew.memOrderViolationEvents          259                       # Number of memory order violations
system.switch_cpus.iew.predictedNotTakenIncorrect        94219                       # Number of branches that were predicted not taken incorrectly
system.switch_cpus.iew.predictedTakenIncorrect        95801                       # Number of branches that were predicted taken incorrectly
system.switch_cpus.iew.wb_consumers          28107427                       # num instructions consuming a value
system.switch_cpus.iew.wb_count              23859382                       # cumulative count of insts written-back
system.switch_cpus.iew.wb_fanout             0.631070                       # average fanout of values written-back
system.switch_cpus.iew.wb_producers          17737747                       # num instructions producing a value
system.switch_cpus.iew.wb_rate               0.211949                       # insts written-back per cycle
system.switch_cpus.iew.wb_sent               23874379                       # cumulative count of insts sent to commit
system.switch_cpus.int_regfile_reads         32946697                       # number of integer regfile reads
system.switch_cpus.int_regfile_writes        19940515                       # number of integer regfile writes
system.switch_cpus.ipc                       0.088833                       # IPC: Instructions Per Cycle
system.switch_cpus.ipc_total                 0.088833                       # IPC: Total IPC of All Threads
system.switch_cpus.iq.FU_type_0::No_OpClass        15220      0.06%      0.06% # Type of FU issued
system.switch_cpus.iq.FU_type_0::IntAlu      17909815     72.77%     72.84% # Type of FU issued
system.switch_cpus.iq.FU_type_0::IntMult         2387      0.01%     72.84% # Type of FU issued
system.switch_cpus.iq.FU_type_0::IntDiv             0      0.00%     72.84% # Type of FU issued
system.switch_cpus.iq.FU_type_0::FloatAdd            0      0.00%     72.84% # Type of FU issued
system.switch_cpus.iq.FU_type_0::FloatCmp            0      0.00%     72.84% # Type of FU issued
system.switch_cpus.iq.FU_type_0::FloatCvt            0      0.00%     72.84% # Type of FU issued
system.switch_cpus.iq.FU_type_0::FloatMult            0      0.00%     72.84% # Type of FU issued
system.switch_cpus.iq.FU_type_0::FloatMultAcc            0      0.00%     72.84% # Type of FU issued
system.switch_cpus.iq.FU_type_0::FloatDiv            0      0.00%     72.84% # Type of FU issued
system.switch_cpus.iq.FU_type_0::FloatMisc            0      0.00%     72.84% # Type of FU issued
system.switch_cpus.iq.FU_type_0::FloatSqrt            0      0.00%     72.84% # Type of FU issued
system.switch_cpus.iq.FU_type_0::SimdAdd            0      0.00%     72.84% # Type of FU issued
system.switch_cpus.iq.FU_type_0::SimdAddAcc            0      0.00%     72.84% # Type of FU issued
system.switch_cpus.iq.FU_type_0::SimdAlu            0      0.00%     72.84% # Type of FU issued
system.switch_cpus.iq.FU_type_0::SimdCmp            0      0.00%     72.84% # Type of FU issued
system.switch_cpus.iq.FU_type_0::SimdCvt            0      0.00%     72.84% # Type of FU issued
system.switch_cpus.iq.FU_type_0::SimdMisc            0      0.00%     72.84% # Type of FU issued
system.switch_cpus.iq.FU_type_0::SimdMult            0      0.00%     72.84% # Type of FU issued
system.switch_cpus.iq.FU_type_0::SimdMultAcc            0      0.00%     72.84% # Type of FU issued
system.switch_cpus.iq.FU_type_0::SimdShift            0      0.00%     72.84% # Type of FU issued
system.switch_cpus.iq.FU_type_0::SimdShiftAcc            0      0.00%     72.84% # Type of FU issued
system.switch_cpus.iq.FU_type_0::SimdDiv            0      0.00%     72.84% # Type of FU issued
system.switch_cpus.iq.FU_type_0::SimdSqrt            0      0.00%     72.84% # Type of FU issued
system.switch_cpus.iq.FU_type_0::SimdFloatAdd            0      0.00%     72.84% # Type of FU issued
system.switch_cpus.iq.FU_type_0::SimdFloatAlu            0      0.00%     72.84% # Type of FU issued
system.switch_cpus.iq.FU_type_0::SimdFloatCmp            0      0.00%     72.84% # Type of FU issued
system.switch_cpus.iq.FU_type_0::SimdFloatCvt            0      0.00%     72.84% # Type of FU issued
system.switch_cpus.iq.FU_type_0::SimdFloatDiv            0      0.00%     72.84% # Type of FU issued
system.switch_cpus.iq.FU_type_0::SimdFloatMisc            0      0.00%     72.84% # Type of FU issued
system.switch_cpus.iq.FU_type_0::SimdFloatMult            0      0.00%     72.84% # Type of FU issued
system.switch_cpus.iq.FU_type_0::SimdFloatMultAcc            0      0.00%     72.84% # Type of FU issued
system.switch_cpus.iq.FU_type_0::SimdFloatSqrt            0      0.00%     72.84% # Type of FU issued
system.switch_cpus.iq.FU_type_0::SimdReduceAdd            0      0.00%     72.84% # Type of FU issued
system.switch_cpus.iq.FU_type_0::SimdReduceAlu            0      0.00%     72.84% # Type of FU issued
system.switch_cpus.iq.FU_type_0::SimdReduceCmp            0      0.00%     72.84% # Type of FU issued
system.switch_cpus.iq.FU_type_0::SimdFloatReduceAdd            0      0.00%     72.84% # Type of FU issued
system.switch_cpus.iq.FU_type_0::SimdFloatReduceCmp            0      0.00%     72.84% # Type of FU issued
system.switch_cpus.iq.FU_type_0::SimdAes            0      0.00%     72.84% # Type of FU issued
system.switch_cpus.iq.FU_type_0::SimdAesMix            0      0.00%     72.84% # Type of FU issued
system.switch_cpus.iq.FU_type_0::SimdSha1Hash            0      0.00%     72.84% # Type of FU issued
system.switch_cpus.iq.FU_type_0::SimdSha1Hash2            0      0.00%     72.84% # Type of FU issued
system.switch_cpus.iq.FU_type_0::SimdSha256Hash            0      0.00%     72.84% # Type of FU issued
system.switch_cpus.iq.FU_type_0::SimdSha256Hash2            0      0.00%     72.84% # Type of FU issued
system.switch_cpus.iq.FU_type_0::SimdShaSigma2            0      0.00%     72.84% # Type of FU issued
system.switch_cpus.iq.FU_type_0::SimdShaSigma3            0      0.00%     72.84% # Type of FU issued
system.switch_cpus.iq.FU_type_0::SimdPredAlu            0      0.00%     72.84% # Type of FU issued
system.switch_cpus.iq.FU_type_0::MemRead      5042005     20.49%     93.33% # Type of FU issued
system.switch_cpus.iq.FU_type_0::MemWrite      1641040      6.67%    100.00% # Type of FU issued
system.switch_cpus.iq.FU_type_0::FloatMemRead            0      0.00%    100.00% # Type of FU issued
system.switch_cpus.iq.FU_type_0::FloatMemWrite            0      0.00%    100.00% # Type of FU issued
system.switch_cpus.iq.FU_type_0::IprAccess            0      0.00%    100.00% # Type of FU issued
system.switch_cpus.iq.FU_type_0::InstPrefetch            0      0.00%    100.00% # Type of FU issued
system.switch_cpus.iq.FU_type_0::total       24610467                       # Type of FU issued
system.switch_cpus.iq.fp_alu_accesses               0                       # Number of floating point alu accesses
system.switch_cpus.iq.fp_inst_queue_reads            0                       # Number of floating instruction queue reads
system.switch_cpus.iq.fp_inst_queue_wakeup_accesses            0                       # Number of floating instruction queue wakeup accesses
system.switch_cpus.iq.fp_inst_queue_writes            0                       # Number of floating instruction queue writes
system.switch_cpus.iq.fu_busy_cnt              259447                       # FU busy when requested
system.switch_cpus.iq.fu_busy_rate           0.010542                       # FU busy rate (busy events/executed inst)
system.switch_cpus.iq.fu_full::No_OpClass            0      0.00%      0.00% # attempts to use FU when none available
system.switch_cpus.iq.fu_full::IntAlu           70015     26.99%     26.99% # attempts to use FU when none available
system.switch_cpus.iq.fu_full::IntMult              0      0.00%     26.99% # attempts to use FU when none available
system.switch_cpus.iq.fu_full::IntDiv               0      0.00%     26.99% # attempts to use FU when none available
system.switch_cpus.iq.fu_full::FloatAdd             0      0.00%     26.99% # attempts to use FU when none available
system.switch_cpus.iq.fu_full::FloatCmp             0      0.00%     26.99% # attempts to use FU when none available
system.switch_cpus.iq.fu_full::FloatCvt             0      0.00%     26.99% # attempts to use FU when none available
system.switch_cpus.iq.fu_full::FloatMult            0      0.00%     26.99% # attempts to use FU when none available
system.switch_cpus.iq.fu_full::FloatMultAcc            0      0.00%     26.99% # attempts to use FU when none available
system.switch_cpus.iq.fu_full::FloatDiv             0      0.00%     26.99% # attempts to use FU when none available
system.switch_cpus.iq.fu_full::FloatMisc            0      0.00%     26.99% # attempts to use FU when none available
system.switch_cpus.iq.fu_full::FloatSqrt            0      0.00%     26.99% # attempts to use FU when none available
system.switch_cpus.iq.fu_full::SimdAdd              0      0.00%     26.99% # attempts to use FU when none available
system.switch_cpus.iq.fu_full::SimdAddAcc            0      0.00%     26.99% # attempts to use FU when none available
system.switch_cpus.iq.fu_full::SimdAlu              0      0.00%     26.99% # attempts to use FU when none available
system.switch_cpus.iq.fu_full::SimdCmp              0      0.00%     26.99% # attempts to use FU when none available
system.switch_cpus.iq.fu_full::SimdCvt              0      0.00%     26.99% # attempts to use FU when none available
system.switch_cpus.iq.fu_full::SimdMisc             0      0.00%     26.99% # attempts to use FU when none available
system.switch_cpus.iq.fu_full::SimdMult             0      0.00%     26.99% # attempts to use FU when none available
system.switch_cpus.iq.fu_full::SimdMultAcc            0      0.00%     26.99% # attempts to use FU when none available
system.switch_cpus.iq.fu_full::SimdShift            0      0.00%     26.99% # attempts to use FU when none available
system.switch_cpus.iq.fu_full::SimdShiftAcc            0      0.00%     26.99% # attempts to use FU when none available
system.switch_cpus.iq.fu_full::SimdDiv              0      0.00%     26.99% # attempts to use FU when none available
system.switch_cpus.iq.fu_full::SimdSqrt             0      0.00%     26.99% # attempts to use FU when none available
system.switch_cpus.iq.fu_full::SimdFloatAdd            0      0.00%     26.99% # attempts to use FU when none available
system.switch_cpus.iq.fu_full::SimdFloatAlu            0      0.00%     26.99% # attempts to use FU when none available
system.switch_cpus.iq.fu_full::SimdFloatCmp            0      0.00%     26.99% # attempts to use FU when none available
system.switch_cpus.iq.fu_full::SimdFloatCvt            0      0.00%     26.99% # attempts to use FU when none available
system.switch_cpus.iq.fu_full::SimdFloatDiv            0      0.00%     26.99% # attempts to use FU when none available
system.switch_cpus.iq.fu_full::SimdFloatMisc            0      0.00%     26.99% # attempts to use FU when none available
system.switch_cpus.iq.fu_full::SimdFloatMult            0      0.00%     26.99% # attempts to use FU when none available
system.switch_cpus.iq.fu_full::SimdFloatMultAcc            0      0.00%     26.99% # attempts to use FU when none available
system.switch_cpus.iq.fu_full::SimdFloatSqrt            0      0.00%     26.99% # attempts to use FU when none available
system.switch_cpus.iq.fu_full::SimdReduceAdd            0      0.00%     26.99% # attempts to use FU when none available
system.switch_cpus.iq.fu_full::SimdReduceAlu            0      0.00%     26.99% # attempts to use FU when none available
system.switch_cpus.iq.fu_full::SimdReduceCmp            0      0.00%     26.99% # attempts to use FU when none available
system.switch_cpus.iq.fu_full::SimdFloatReduceAdd            0      0.00%     26.99% # attempts to use FU when none available
system.switch_cpus.iq.fu_full::SimdFloatReduceCmp            0      0.00%     26.99% # attempts to use FU when none available
system.switch_cpus.iq.fu_full::SimdAes              0      0.00%     26.99% # attempts to use FU when none available
system.switch_cpus.iq.fu_full::SimdAesMix            0      0.00%     26.99% # attempts to use FU when none available
system.switch_cpus.iq.fu_full::SimdSha1Hash            0      0.00%     26.99% # attempts to use FU when none available
system.switch_cpus.iq.fu_full::SimdSha1Hash2            0      0.00%     26.99% # attempts to use FU when none available
system.switch_cpus.iq.fu_full::SimdSha256Hash            0      0.00%     26.99% # attempts to use FU when none available
system.switch_cpus.iq.fu_full::SimdSha256Hash2            0      0.00%     26.99% # attempts to use FU when none available
system.switch_cpus.iq.fu_full::SimdShaSigma2            0      0.00%     26.99% # attempts to use FU when none available
system.switch_cpus.iq.fu_full::SimdShaSigma3            0      0.00%     26.99% # attempts to use FU when none available
system.switch_cpus.iq.fu_full::SimdPredAlu            0      0.00%     26.99% # attempts to use FU when none available
system.switch_cpus.iq.fu_full::MemRead          63463     24.46%     51.45% # attempts to use FU when none available
system.switch_cpus.iq.fu_full::MemWrite        125969     48.55%    100.00% # attempts to use FU when none available
system.switch_cpus.iq.fu_full::FloatMemRead            0      0.00%    100.00% # attempts to use FU when none available
system.switch_cpus.iq.fu_full::FloatMemWrite            0      0.00%    100.00% # attempts to use FU when none available
system.switch_cpus.iq.fu_full::IprAccess            0      0.00%    100.00% # attempts to use FU when none available
system.switch_cpus.iq.fu_full::InstPrefetch            0      0.00%    100.00% # attempts to use FU when none available
system.switch_cpus.iq.int_alu_accesses       24854694                       # Number of integer alu accesses
system.switch_cpus.iq.int_inst_queue_reads    162064946                       # Number of integer instruction queue reads
system.switch_cpus.iq.int_inst_queue_wakeup_accesses     23859382                       # Number of integer instruction queue wakeup accesses
system.switch_cpus.iq.int_inst_queue_writes     46753545                       # Number of integer instruction queue writes
system.switch_cpus.iq.iqInstsAdded           31478963                       # Number of instructions added to the IQ (excludes non-spec)
system.switch_cpus.iq.iqInstsIssued          24610467                       # Number of instructions issued
system.switch_cpus.iq.iqSquashedInstsExamined     15274328                       # Number of squashed instructions iterated over during squash; mainly for profiling
system.switch_cpus.iq.iqSquashedInstsIssued        14412                       # Number of squashed instructions issued
system.switch_cpus.iq.iqSquashedOperandsExamined     26896569                       # Number of squashed operands that are examined and possibly removed from graph
system.switch_cpus.iq.issued_per_cycle::samples    112570154                       # Number of insts issued each cycle
system.switch_cpus.iq.issued_per_cycle::mean     0.218623                       # Number of insts issued each cycle
system.switch_cpus.iq.issued_per_cycle::stdev     0.816854                       # Number of insts issued each cycle
system.switch_cpus.iq.issued_per_cycle::underflows            0      0.00%      0.00% # Number of insts issued each cycle
system.switch_cpus.iq.issued_per_cycle::0    101256089     89.95%     89.95% # Number of insts issued each cycle
system.switch_cpus.iq.issued_per_cycle::1      5396925      4.79%     94.74% # Number of insts issued each cycle
system.switch_cpus.iq.issued_per_cycle::2      2397443      2.13%     96.87% # Number of insts issued each cycle
system.switch_cpus.iq.issued_per_cycle::3      1655215      1.47%     98.34% # Number of insts issued each cycle
system.switch_cpus.iq.issued_per_cycle::4       825009      0.73%     99.08% # Number of insts issued each cycle
system.switch_cpus.iq.issued_per_cycle::5       447801      0.40%     99.47% # Number of insts issued each cycle
system.switch_cpus.iq.issued_per_cycle::6       319071      0.28%     99.76% # Number of insts issued each cycle
system.switch_cpus.iq.issued_per_cycle::7       181264      0.16%     99.92% # Number of insts issued each cycle
system.switch_cpus.iq.issued_per_cycle::8        91337      0.08%    100.00% # Number of insts issued each cycle
system.switch_cpus.iq.issued_per_cycle::overflows            0      0.00%    100.00% # Number of insts issued each cycle
system.switch_cpus.iq.issued_per_cycle::min_value            0                       # Number of insts issued each cycle
system.switch_cpus.iq.issued_per_cycle::max_value            8                       # Number of insts issued each cycle
system.switch_cpus.iq.issued_per_cycle::total    112570154                       # Number of insts issued each cycle
system.switch_cpus.iq.rate                   0.218621                       # Inst issue rate
system.switch_cpus.iq.vec_alu_accesses              0                       # Number of vector alu accesses
system.switch_cpus.iq.vec_inst_queue_reads            0                       # Number of vector instruction queue reads
system.switch_cpus.iq.vec_inst_queue_wakeup_accesses            0                       # Number of vector instruction queue wakeup accesses
system.switch_cpus.iq.vec_inst_queue_writes            0                       # Number of vector instruction queue writes
system.switch_cpus.itb.rdAccesses                   0                       # TLB accesses on read requests
system.switch_cpus.itb.rdMisses                     0                       # TLB misses on read requests
system.switch_cpus.itb.wrAccesses             2971363                       # TLB accesses on write requests
system.switch_cpus.itb.wrMisses                   237                       # TLB misses on write requests
system.switch_cpus.memDep0.conflictingLoads       417933                       # Number of conflicting loads.
system.switch_cpus.memDep0.conflictingStores       696508                       # Number of conflicting stores.
system.switch_cpus.memDep0.insertedLoads      6811965                       # Number of loads inserted to the mem dependence unit.
system.switch_cpus.memDep0.insertedStores      2315957                       # Number of stores inserted to the mem dependence unit.
system.switch_cpus.misc_regfile_reads        12484533                       # number of misc regfile reads
system.switch_cpus.misc_regfile_writes              1                       # number of misc regfile writes
system.switch_cpus.numCycles                112571358                       # number of cpu cycles simulated
system.switch_cpus.numWorkItemsCompleted            0                       # number of work items this cpu completed
system.switch_cpus.numWorkItemsStarted              0                       # number of work items this cpu started
system.switch_cpus.rename.BlockCycles        98570074                       # Number of cycles rename is blocking
system.switch_cpus.rename.CommittedMaps      20622243                       # Number of HB maps that are committed
system.switch_cpus.rename.IQFullEvents        5896936                       # Number of times rename has blocked due to IQ full
system.switch_cpus.rename.IdleCycles          2110558                       # Number of cycles rename is idle
system.switch_cpus.rename.LQFullEvents         877885                       # Number of times rename has blocked due to LQ full
system.switch_cpus.rename.ROBFullEvents        173062                       # Number of times rename has blocked due to ROB full
system.switch_cpus.rename.RenameLookups      85719250                       # Number of register rename lookups that rename has made
system.switch_cpus.rename.RenamedInsts       32239781                       # Number of instructions processed by rename
system.switch_cpus.rename.RenamedOperands     40697222                       # Number of destination operands rename has renamed
system.switch_cpus.rename.RunCycles           3555798                       # Number of cycles rename is running
system.switch_cpus.rename.SQFullEvents        1381244                       # Number of times rename has blocked due to SQ full
system.switch_cpus.rename.SquashCycles         176551                       # Number of cycles rename is squashing
system.switch_cpus.rename.UnblockCycles       8157164                       # Number of cycles rename is unblocking
system.switch_cpus.rename.UndoneMaps         20074865                       # Number of HB maps that are undone due to squashing
system.switch_cpus.rename.int_rename_lookups     48803842                       # Number of integer rename lookups
system.switch_cpus.rename.serializeStallCycles            0                       # count of cycles rename stalled for serializing inst
system.switch_cpus.rename.serializingInsts            0                       # count of serializing insts renamed
system.switch_cpus.rename.skidInsts          10900541                       # count of insts added to the skid buffer
system.switch_cpus.rename.tempSerializingInsts            0                       # count of temporary serializing insts renamed
system.switch_cpus.rob.rob_reads            141286267                       # The number of ROB reads
system.switch_cpus.rob.rob_writes            65075410                       # The number of ROB writes
system.switch_cpus.timesIdled                      19                       # Number of times that the entire CPU went into an idle state and unscheduled itself
system.tol2bus.snoop_filter.hit_multi_requests            0                       # Number of requests hitting in the snoop filter with multiple (>1) holders of the requested data.
system.tol2bus.snoop_filter.hit_multi_snoops            0                       # Number of snoops hitting in the snoop filter with multiple (>1) holders of the requested data.
system.tol2bus.snoop_filter.hit_single_requests      2091468                       # Number of requests hitting in the snoop filter with a single holder of the requested data.
system.tol2bus.snoop_filter.hit_single_snoops        17884                       # Number of snoops hitting in the snoop filter with a single holder of the requested data.
system.tol2bus.snoop_filter.tot_requests      4183979                       # Total number of requests made to the snoop filter.
system.tol2bus.snoop_filter.tot_snoops          17884                       # Total number of snoops made to the snoop filter.
system.membus.pwrStateResidencyTicks::UNDEFINED 92837381116000                       # Cumulative time (in ticks) in various power states
system.membus.trans_dist::ReadResp            1865693                       # Transaction distribution
system.membus.trans_dist::WritebackDirty       137424                       # Transaction distribution
system.membus.trans_dist::CleanEvict          1763883                       # Transaction distribution
system.membus.trans_dist::ReadExReq             39730                       # Transaction distribution
system.membus.trans_dist::ReadExResp            39730                       # Transaction distribution
system.membus.trans_dist::ReadSharedReq       1865693                       # Transaction distribution
system.membus.pkt_count_system.l2.mem_side::system.mem_ctrls.port      5712153                       # Packet count per connected master and slave (bytes)
system.membus.pkt_count_system.l2.mem_side::total      5712153                       # Packet count per connected master and slave (bytes)
system.membus.pkt_count::total                5712153                       # Packet count per connected master and slave (bytes)
system.membus.pkt_size_system.l2.mem_side::system.mem_ctrls.port    130742208                       # Cumulative packet size per connected master and slave (bytes)
system.membus.pkt_size_system.l2.mem_side::total    130742208                       # Cumulative packet size per connected master and slave (bytes)
system.membus.pkt_size::total               130742208                       # Cumulative packet size per connected master and slave (bytes)
system.membus.snoops                                0                       # Total snoops (count)
system.membus.snoopTraffic                          0                       # Total snoop traffic (bytes)
system.membus.snoop_fanout::samples           1905423                       # Request fanout histogram
system.membus.snoop_fanout::mean                    0                       # Request fanout histogram
system.membus.snoop_fanout::stdev                   0                       # Request fanout histogram
system.membus.snoop_fanout::underflows              0      0.00%      0.00% # Request fanout histogram
system.membus.snoop_fanout::0                 1905423    100.00%    100.00% # Request fanout histogram
system.membus.snoop_fanout::1                       0      0.00%    100.00% # Request fanout histogram
system.membus.snoop_fanout::overflows               0      0.00%    100.00% # Request fanout histogram
system.membus.snoop_fanout::min_value               0                       # Request fanout histogram
system.membus.snoop_fanout::max_value               0                       # Request fanout histogram
system.membus.snoop_fanout::total             1905423                       # Request fanout histogram
system.membus.reqLayer2.occupancy          4702056735                       # Layer occupancy (ticks)
system.membus.reqLayer2.utilization               8.4                       # Layer utilization (%)
system.membus.respLayer1.occupancy         9846634026                       # Layer occupancy (ticks)
system.membus.respLayer1.utilization             17.5                       # Layer utilization (%)
system.switch_cpus.pwrStateResidencyTicks::OFF  56285689750                       # Cumulative time (in ticks) in various power states
system.switch_cpus.dtb.walker.pwrStateResidencyTicks::UNDEFINED 92837381116000                       # Cumulative time (in ticks) in various power states
system.switch_cpus.itb.walker.pwrStateResidencyTicks::UNDEFINED 92837381116000                       # Cumulative time (in ticks) in various power states
system.tol2bus.pwrStateResidencyTicks::UNDEFINED 92837381116000                       # Cumulative time (in ticks) in various power states
system.tol2bus.trans_dist::ReadResp           2012810                       # Transaction distribution
system.tol2bus.trans_dist::WritebackDirty       277992                       # Transaction distribution
system.tol2bus.trans_dist::CleanEvict         3718481                       # Transaction distribution
system.tol2bus.trans_dist::HardPFReq          1391125                       # Transaction distribution
system.tol2bus.trans_dist::ReadExReq            79700                       # Transaction distribution
system.tol2bus.trans_dist::ReadExResp           79700                       # Transaction distribution
system.tol2bus.trans_dist::ReadCleanReq            18                       # Transaction distribution
system.tol2bus.trans_dist::ReadSharedReq      2012793                       # Transaction distribution
system.tol2bus.pkt_count_system.cpu.icache.mem_side::system.l2.cpu_side           36                       # Packet count per connected master and slave (bytes)
system.tol2bus.pkt_count_system.cpu.dcache.mem_side::system.l2.cpu_side      6276453                       # Packet count per connected master and slave (bytes)
system.tol2bus.pkt_count::total               6276489                       # Packet count per connected master and slave (bytes)
system.tol2bus.pkt_size_system.cpu.icache.mem_side::system.l2.cpu_side         1152                       # Cumulative packet size per connected master and slave (bytes)
system.tol2bus.pkt_size_system.cpu.dcache.mem_side::system.l2.cpu_side    142915840                       # Cumulative packet size per connected master and slave (bytes)
system.tol2bus.pkt_size::total              142916992                       # Cumulative packet size per connected master and slave (bytes)
system.tol2bus.snoops                         3296130                       # Total snoops (count)
system.tol2bus.snoopTraffic                   8795136                       # Total snoop traffic (bytes)
system.tol2bus.snoop_fanout::samples          5388641                       # Request fanout histogram
system.tol2bus.snoop_fanout::mean            0.003319                       # Request fanout histogram
system.tol2bus.snoop_fanout::stdev           0.057514                       # Request fanout histogram
system.tol2bus.snoop_fanout::underflows             0      0.00%      0.00% # Request fanout histogram
system.tol2bus.snoop_fanout::0                5370757     99.67%     99.67% # Request fanout histogram
system.tol2bus.snoop_fanout::1                  17884      0.33%    100.00% # Request fanout histogram
system.tol2bus.snoop_fanout::2                      0      0.00%    100.00% # Request fanout histogram
system.tol2bus.snoop_fanout::3                      0      0.00%    100.00% # Request fanout histogram
system.tol2bus.snoop_fanout::4                      0      0.00%    100.00% # Request fanout histogram
system.tol2bus.snoop_fanout::overflows              0      0.00%    100.00% # Request fanout histogram
system.tol2bus.snoop_fanout::min_value              0                       # Request fanout histogram
system.tol2bus.snoop_fanout::max_value              1                       # Request fanout histogram
system.tol2bus.snoop_fanout::total            5388641                       # Request fanout histogram
system.tol2bus.reqLayer0.occupancy         2232555500                       # Layer occupancy (ticks)
system.tol2bus.reqLayer0.utilization              4.0                       # Layer utilization (%)
system.tol2bus.respLayer1.occupancy        3138733500                       # Layer occupancy (ticks)
system.tol2bus.respLayer1.utilization             5.6                       # Layer utilization (%)
system.tol2bus.respLayer0.occupancy             25500                       # Layer occupancy (ticks)
system.tol2bus.respLayer0.utilization             0.0                       # Layer utilization (%)
system.voltage_domain.voltage                       1                       # Voltage in Volts
system.clk_domain.clock                          1000                       # Clock period in ticks
system.l2.pwrStateResidencyTicks::UNDEFINED 92837381116000                       # Cumulative time (in ticks) in various power states
system.l2.demand_hits::.switch_cpus.data       992160                       # number of demand (read+write) hits
system.l2.demand_hits::total                   992160                       # number of demand (read+write) hits
system.l2.overall_hits::.switch_cpus.data       992160                       # number of overall hits
system.l2.overall_hits::total                  992160                       # number of overall hits
system.l2.demand_misses::.cpu.inst                  1                       # number of demand (read+write) misses
system.l2.demand_misses::.cpu.data                  3                       # number of demand (read+write) misses
system.l2.demand_misses::.switch_cpus.inst           17                       # number of demand (read+write) misses
system.l2.demand_misses::.switch_cpus.data      1100330                       # number of demand (read+write) misses
system.l2.demand_misses::total                1100351                       # number of demand (read+write) misses
system.l2.overall_misses::.cpu.inst                 1                       # number of overall misses
system.l2.overall_misses::.cpu.data                 3                       # number of overall misses
system.l2.overall_misses::.switch_cpus.inst           17                       # number of overall misses
system.l2.overall_misses::.switch_cpus.data      1100330                       # number of overall misses
system.l2.overall_misses::total               1100351                       # number of overall misses
system.l2.demand_miss_latency::.switch_cpus.inst      1497500                       # number of demand (read+write) miss cycles
system.l2.demand_miss_latency::.switch_cpus.data  92822310500                       # number of demand (read+write) miss cycles
system.l2.demand_miss_latency::total      92823808000                       # number of demand (read+write) miss cycles
system.l2.overall_miss_latency::.switch_cpus.inst      1497500                       # number of overall miss cycles
system.l2.overall_miss_latency::.switch_cpus.data  92822310500                       # number of overall miss cycles
system.l2.overall_miss_latency::total     92823808000                       # number of overall miss cycles
system.l2.demand_accesses::.cpu.inst                1                       # number of demand (read+write) accesses
system.l2.demand_accesses::.cpu.data                3                       # number of demand (read+write) accesses
system.l2.demand_accesses::.switch_cpus.inst           17                       # number of demand (read+write) accesses
system.l2.demand_accesses::.switch_cpus.data      2092490                       # number of demand (read+write) accesses
system.l2.demand_accesses::total              2092511                       # number of demand (read+write) accesses
system.l2.overall_accesses::.cpu.inst               1                       # number of overall (read+write) accesses
system.l2.overall_accesses::.cpu.data               3                       # number of overall (read+write) accesses
system.l2.overall_accesses::.switch_cpus.inst           17                       # number of overall (read+write) accesses
system.l2.overall_accesses::.switch_cpus.data      2092490                       # number of overall (read+write) accesses
system.l2.overall_accesses::total             2092511                       # number of overall (read+write) accesses
system.l2.demand_miss_rate::.cpu.inst               1                       # miss rate for demand accesses
system.l2.demand_miss_rate::.cpu.data               1                       # miss rate for demand accesses
system.l2.demand_miss_rate::.switch_cpus.inst            1                       # miss rate for demand accesses
system.l2.demand_miss_rate::.switch_cpus.data     0.525847                       # miss rate for demand accesses
system.l2.demand_miss_rate::total            0.525852                       # miss rate for demand accesses
system.l2.overall_miss_rate::.cpu.inst              1                       # miss rate for overall accesses
system.l2.overall_miss_rate::.cpu.data              1                       # miss rate for overall accesses
system.l2.overall_miss_rate::.switch_cpus.inst            1                       # miss rate for overall accesses
system.l2.overall_miss_rate::.switch_cpus.data     0.525847                       # miss rate for overall accesses
system.l2.overall_miss_rate::total           0.525852                       # miss rate for overall accesses
system.l2.demand_avg_miss_latency::.switch_cpus.inst 88088.235294                       # average overall miss latency
system.l2.demand_avg_miss_latency::.switch_cpus.data 84358.611053                       # average overall miss latency
system.l2.demand_avg_miss_latency::total 84358.362014                       # average overall miss latency
system.l2.overall_avg_miss_latency::.switch_cpus.inst 88088.235294                       # average overall miss latency
system.l2.overall_avg_miss_latency::.switch_cpus.data 84358.611053                       # average overall miss latency
system.l2.overall_avg_miss_latency::total 84358.362014                       # average overall miss latency
system.l2.blocked_cycles::no_mshrs                  0                       # number of cycles access was blocked
system.l2.blocked_cycles::no_targets                0                       # number of cycles access was blocked
system.l2.blocked::no_mshrs                         0                       # number of cycles access was blocked
system.l2.blocked::no_targets                       0                       # number of cycles access was blocked
system.l2.avg_blocked_cycles::no_mshrs            nan                       # average number of cycles each access was blocked
system.l2.avg_blocked_cycles::no_targets          nan                       # average number of cycles each access was blocked
system.l2.unused_prefetches                      8319                       # number of HardPF blocks evicted w/o reference
system.l2.writebacks::.writebacks              137424                       # number of writebacks
system.l2.writebacks::total                    137424                       # number of writebacks
system.l2.demand_mshr_hits::.switch_cpus.data        16346                       # number of demand (read+write) MSHR hits
system.l2.demand_mshr_hits::total               16346                       # number of demand (read+write) MSHR hits
system.l2.overall_mshr_hits::.switch_cpus.data        16346                       # number of overall MSHR hits
system.l2.overall_mshr_hits::total              16346                       # number of overall MSHR hits
system.l2.demand_mshr_misses::.switch_cpus.inst           17                       # number of demand (read+write) MSHR misses
system.l2.demand_mshr_misses::.switch_cpus.data      1083984                       # number of demand (read+write) MSHR misses
system.l2.demand_mshr_misses::total           1084001                       # number of demand (read+write) MSHR misses
system.l2.overall_mshr_misses::.l2.prefetcher       821419                       # number of overall MSHR misses
system.l2.overall_mshr_misses::.switch_cpus.inst           17                       # number of overall MSHR misses
system.l2.overall_mshr_misses::.switch_cpus.data      1083984                       # number of overall MSHR misses
system.l2.overall_mshr_misses::total          1905420                       # number of overall MSHR misses
system.l2.demand_mshr_miss_latency::.switch_cpus.inst      1327500                       # number of demand (read+write) MSHR miss cycles
system.l2.demand_mshr_miss_latency::.switch_cpus.data  81258580500                       # number of demand (read+write) MSHR miss cycles
system.l2.demand_mshr_miss_latency::total  81259908000                       # number of demand (read+write) MSHR miss cycles
system.l2.overall_mshr_miss_latency::.l2.prefetcher  54298468219                       # number of overall MSHR miss cycles
system.l2.overall_mshr_miss_latency::.switch_cpus.inst      1327500                       # number of overall MSHR miss cycles
system.l2.overall_mshr_miss_latency::.switch_cpus.data  81258580500                       # number of overall MSHR miss cycles
system.l2.overall_mshr_miss_latency::total 135558376219                       # number of overall MSHR miss cycles
system.l2.demand_mshr_miss_rate::.switch_cpus.inst            1                       # mshr miss rate for demand accesses
system.l2.demand_mshr_miss_rate::.switch_cpus.data     0.518035                       # mshr miss rate for demand accesses
system.l2.demand_mshr_miss_rate::total       0.518038                       # mshr miss rate for demand accesses
system.l2.overall_mshr_miss_rate::.l2.prefetcher          inf                       # mshr miss rate for overall accesses
system.l2.overall_mshr_miss_rate::.switch_cpus.inst            1                       # mshr miss rate for overall accesses
system.l2.overall_mshr_miss_rate::.switch_cpus.data     0.518035                       # mshr miss rate for overall accesses
system.l2.overall_mshr_miss_rate::total      0.910590                       # mshr miss rate for overall accesses
system.l2.demand_avg_mshr_miss_latency::.switch_cpus.inst 78088.235294                       # average overall mshr miss latency
system.l2.demand_avg_mshr_miss_latency::.switch_cpus.data 74962.896593                       # average overall mshr miss latency
system.l2.demand_avg_mshr_miss_latency::total 74962.945606                       # average overall mshr miss latency
system.l2.overall_avg_mshr_miss_latency::.l2.prefetcher 66103.253296                       # average overall mshr miss latency
system.l2.overall_avg_mshr_miss_latency::.switch_cpus.inst 78088.235294                       # average overall mshr miss latency
system.l2.overall_avg_mshr_miss_latency::.switch_cpus.data 74962.896593                       # average overall mshr miss latency
system.l2.overall_avg_mshr_miss_latency::total 71143.567412                       # average overall mshr miss latency
system.l2.replacements                        1905005                       # number of replacements
system.l2.WritebackDirty_hits::.writebacks       140568                       # number of WritebackDirty hits
system.l2.WritebackDirty_hits::total           140568                       # number of WritebackDirty hits
system.l2.WritebackDirty_accesses::.writebacks       140568                       # number of WritebackDirty accesses(hits+misses)
system.l2.WritebackDirty_accesses::total       140568                       # number of WritebackDirty accesses(hits+misses)
system.l2.CleanEvict_mshr_misses::.writebacks        14182                       # number of CleanEvict MSHR misses
system.l2.CleanEvict_mshr_misses::total         14182                       # number of CleanEvict MSHR misses
system.l2.CleanEvict_mshr_miss_rate::.writebacks          inf                       # mshr miss rate for CleanEvict accesses
system.l2.CleanEvict_mshr_miss_rate::total          inf                       # mshr miss rate for CleanEvict accesses
system.l2.HardPFReq_mshr_misses::.l2.prefetcher       821419                       # number of HardPFReq MSHR misses
system.l2.HardPFReq_mshr_misses::total         821419                       # number of HardPFReq MSHR misses
system.l2.HardPFReq_mshr_miss_latency::.l2.prefetcher  54298468219                       # number of HardPFReq MSHR miss cycles
system.l2.HardPFReq_mshr_miss_latency::total  54298468219                       # number of HardPFReq MSHR miss cycles
system.l2.HardPFReq_mshr_miss_rate::.l2.prefetcher          inf                       # mshr miss rate for HardPFReq accesses
system.l2.HardPFReq_mshr_miss_rate::total          inf                       # mshr miss rate for HardPFReq accesses
system.l2.HardPFReq_avg_mshr_miss_latency::.l2.prefetcher 66103.253296                       # average HardPFReq mshr miss latency
system.l2.HardPFReq_avg_mshr_miss_latency::total 66103.253296                       # average HardPFReq mshr miss latency
system.l2.ReadExReq_hits::.switch_cpus.data        39970                       # number of ReadExReq hits
system.l2.ReadExReq_hits::total                 39970                       # number of ReadExReq hits
system.l2.ReadExReq_misses::.switch_cpus.data        39730                       # number of ReadExReq misses
system.l2.ReadExReq_misses::total               39730                       # number of ReadExReq misses
system.l2.ReadExReq_miss_latency::.switch_cpus.data   3619280000                       # number of ReadExReq miss cycles
system.l2.ReadExReq_miss_latency::total    3619280000                       # number of ReadExReq miss cycles
system.l2.ReadExReq_accesses::.switch_cpus.data        79700                       # number of ReadExReq accesses(hits+misses)
system.l2.ReadExReq_accesses::total             79700                       # number of ReadExReq accesses(hits+misses)
system.l2.ReadExReq_miss_rate::.switch_cpus.data     0.498494                       # miss rate for ReadExReq accesses
system.l2.ReadExReq_miss_rate::total         0.498494                       # miss rate for ReadExReq accesses
system.l2.ReadExReq_avg_miss_latency::.switch_cpus.data 91096.904103                       # average ReadExReq miss latency
system.l2.ReadExReq_avg_miss_latency::total 91096.904103                       # average ReadExReq miss latency
system.l2.ReadExReq_mshr_misses::.switch_cpus.data        39730                       # number of ReadExReq MSHR misses
system.l2.ReadExReq_mshr_misses::total          39730                       # number of ReadExReq MSHR misses
system.l2.ReadExReq_mshr_miss_latency::.switch_cpus.data   3221980000                       # number of ReadExReq MSHR miss cycles
system.l2.ReadExReq_mshr_miss_latency::total   3221980000                       # number of ReadExReq MSHR miss cycles
system.l2.ReadExReq_mshr_miss_rate::.switch_cpus.data     0.498494                       # mshr miss rate for ReadExReq accesses
system.l2.ReadExReq_mshr_miss_rate::total     0.498494                       # mshr miss rate for ReadExReq accesses
system.l2.ReadExReq_avg_mshr_miss_latency::.switch_cpus.data 81096.904103                       # average ReadExReq mshr miss latency
system.l2.ReadExReq_avg_mshr_miss_latency::total 81096.904103                       # average ReadExReq mshr miss latency
[...]
system.cpu.icache.tags.data_accesses         22212474                       # Number of data accesses
system.cpu.dtb.walker.pwrStateResidencyTicks::UNDEFINED 92989555466000                       # Cumulative time (in ticks) in various power states
system.cpu.interrupts.clk_domain.clock           8000                       # Clock period in ticks
system.cpu.itb_walker_cache.pwrStateResidencyTicks::UNDEFINED 92989555466000                       # Cumulative time (in ticks) in various power states
system.cpu.itb_walker_cache.blocked_cycles::no_mshrs            0                       # number of cycles access was blocked
system.cpu.itb_walker_cache.blocked_cycles::no_targets            0                       # number of cycles access was blocked
system.cpu.itb_walker_cache.blocked::no_mshrs            0                       # number of cycles access was blocked
system.cpu.itb_walker_cache.blocked::no_targets            0                       # number of cycles access was blocked
system.cpu.itb_walker_cache.avg_blocked_cycles::no_mshrs          nan                       # average number of cycles each access was blocked
system.cpu.itb_walker_cache.avg_blocked_cycles::no_targets          nan                       # average number of cycles each access was blocked
system.cpu.itb_walker_cache.replacements            0                       # number of replacements
system.cpu.itb_walker_cache.tags.pwrStateResidencyTicks::UNDEFINED 92989555466000                       # Cumulative time (in ticks) in various power states
system.cpu.itb_walker_cache.tags.tagsinuse            0                       # Cycle average of tags in use
system.cpu.itb_walker_cache.tags.total_refs            0                       # Total number of references to valid blocks.
system.cpu.itb_walker_cache.tags.sampled_refs            0                       # Sample count of references to valid blocks.
system.cpu.itb_walker_cache.tags.avg_refs          nan                       # Average number of references to valid blocks.
system.cpu.itb_walker_cache.tags.warmup_cycle            0                       # Cycle when the warmup percentage was hit.
system.cpu.itb_walker_cache.tags.tag_accesses            0                       # Number of tag accesses
system.cpu.itb_walker_cache.tags.data_accesses            0                       # Number of data accesses
system.cpu.itb.walker.pwrStateResidencyTicks::UNDEFINED 92989555466000                       # Cumulative time (in ticks) in various power states
system.cpu.dtb_walker_cache.pwrStateResidencyTicks::UNDEFINED 92989555466000                       # Cumulative time (in ticks) in various power states
system.cpu.dtb_walker_cache.blocked_cycles::no_mshrs            0                       # number of cycles access was blocked
system.cpu.dtb_walker_cache.blocked_cycles::no_targets            0                       # number of cycles access was blocked
system.cpu.dtb_walker_cache.blocked::no_mshrs            0                       # number of cycles access was blocked
system.cpu.dtb_walker_cache.blocked::no_targets            0                       # number of cycles access was blocked
system.cpu.dtb_walker_cache.avg_blocked_cycles::no_mshrs          nan                       # average number of cycles each access was blocked
system.cpu.dtb_walker_cache.avg_blocked_cycles::no_targets          nan                       # average number of cycles each access was blocked
system.cpu.dtb_walker_cache.replacements            0                       # number of replacements
system.cpu.dtb_walker_cache.tags.pwrStateResidencyTicks::UNDEFINED 92989555466000                       # Cumulative time (in ticks) in various power states
system.cpu.dtb_walker_cache.tags.tagsinuse            0                       # Cycle average of tags in use
system.cpu.dtb_walker_cache.tags.total_refs            0                       # Total number of references to valid blocks.
system.cpu.dtb_walker_cache.tags.sampled_refs            0                       # Sample count of references to valid blocks.
system.cpu.dtb_walker_cache.tags.avg_refs          nan                       # Average number of references to valid blocks.
system.cpu.dtb_walker_cache.tags.warmup_cycle            0                       # Cycle when the warmup percentage was hit.
system.cpu.dtb_walker_cache.tags.tag_accesses            0                       # Number of tag accesses
system.cpu.dtb_walker_cache.tags.data_accesses            0                       # Number of data accesses
system.cpu.dcache.pwrStateResidencyTicks::UNDEFINED 92989555466000                       # Cumulative time (in ticks) in various power states
system.cpu.dcache.demand_hits::.cpu.data            1                       # number of demand (read+write) hits
system.cpu.dcache.demand_hits::.switch_cpus.data     13343143                       # number of demand (read+write) hits
system.cpu.dcache.demand_hits::total         13343144                       # number of demand (read+write) hits
system.cpu.dcache.overall_hits::.cpu.data            1                       # number of overall hits
system.cpu.dcache.overall_hits::.switch_cpus.data     13343143                       # number of overall hits
system.cpu.dcache.overall_hits::total        13343144                       # number of overall hits
system.cpu.dcache.demand_misses::.cpu.data            3                       # number of demand (read+write) misses
system.cpu.dcache.demand_misses::.switch_cpus.data      8898808                       # number of demand (read+write) misses
system.cpu.dcache.demand_misses::total        8898811                       # number of demand (read+write) misses
system.cpu.dcache.overall_misses::.cpu.data            3                       # number of overall misses
system.cpu.dcache.overall_misses::.switch_cpus.data      8898808                       # number of overall misses
system.cpu.dcache.overall_misses::total       8898811                       # number of overall misses
system.cpu.dcache.demand_miss_latency::.switch_cpus.data 467336230788                       # number of demand (read+write) miss cycles
system.cpu.dcache.demand_miss_latency::total 467336230788                       # number of demand (read+write) miss cycles
system.cpu.dcache.overall_miss_latency::.switch_cpus.data 467336230788                       # number of overall miss cycles
system.cpu.dcache.overall_miss_latency::total 467336230788                       # number of overall miss cycles
system.cpu.dcache.demand_accesses::.cpu.data            4                       # number of demand (read+write) accesses
system.cpu.dcache.demand_accesses::.switch_cpus.data     22241951                       # number of demand (read+write) accesses
system.cpu.dcache.demand_accesses::total     22241955                       # number of demand (read+write) accesses
system.cpu.dcache.overall_accesses::.cpu.data            4                       # number of overall (read+write) accesses
system.cpu.dcache.overall_accesses::.switch_cpus.data     22241951                       # number of overall (read+write) accesses
system.cpu.dcache.overall_accesses::total     22241955                       # number of overall (read+write) accesses
system.cpu.dcache.demand_miss_rate::.cpu.data     0.750000                       # miss rate for demand accesses
system.cpu.dcache.demand_miss_rate::.switch_cpus.data     0.400091                       # miss rate for demand accesses
system.cpu.dcache.demand_miss_rate::total     0.400091                       # miss rate for demand accesses
system.cpu.dcache.overall_miss_rate::.cpu.data     0.750000                       # miss rate for overall accesses
system.cpu.dcache.overall_miss_rate::.switch_cpus.data     0.400091                       # miss rate for overall accesses
system.cpu.dcache.overall_miss_rate::total     0.400091                       # miss rate for overall accesses
system.cpu.dcache.demand_avg_miss_latency::.switch_cpus.data 52516.722553                       # average overall miss latency
system.cpu.dcache.demand_avg_miss_latency::total 52516.704848                       # average overall miss latency
system.cpu.dcache.overall_avg_miss_latency::.switch_cpus.data 52516.722553                       # average overall miss latency
system.cpu.dcache.overall_avg_miss_latency::total 52516.704848                       # average overall miss latency
system.cpu.dcache.blocked_cycles::no_mshrs     26086544                       # number of cycles access was blocked
system.cpu.dcache.blocked_cycles::no_targets            0                       # number of cycles access was blocked
system.cpu.dcache.blocked::no_mshrs            933240                       # number of cycles access was blocked
system.cpu.dcache.blocked::no_targets               0                       # number of cycles access was blocked
system.cpu.dcache.avg_blocked_cycles::no_mshrs    27.952664                       # average number of cycles each access was blocked
system.cpu.dcache.avg_blocked_cycles::no_targets          nan                       # average number of cycles each access was blocked
system.cpu.dcache.writebacks::.writebacks       550816                       # number of writebacks
system.cpu.dcache.writebacks::total            550816                       # number of writebacks
system.cpu.dcache.demand_mshr_hits::.switch_cpus.data      1100292                       # number of demand (read+write) MSHR hits
system.cpu.dcache.demand_mshr_hits::total      1100292                       # number of demand (read+write) MSHR hits
system.cpu.dcache.overall_mshr_hits::.switch_cpus.data      1100292                       # number of overall MSHR hits
system.cpu.dcache.overall_mshr_hits::total      1100292                       # number of overall MSHR hits
system.cpu.dcache.demand_mshr_misses::.switch_cpus.data      7798516                       # number of demand (read+write) MSHR misses
system.cpu.dcache.demand_mshr_misses::total      7798516                       # number of demand (read+write) MSHR misses
system.cpu.dcache.overall_mshr_misses::.switch_cpus.data      7798516                       # number of overall MSHR misses
system.cpu.dcache.overall_mshr_misses::total      7798516                       # number of overall MSHR misses
system.cpu.dcache.demand_mshr_miss_latency::.switch_cpus.data 401919898290                       # number of demand (read+write) MSHR miss cycles
system.cpu.dcache.demand_mshr_miss_latency::total 401919898290                       # number of demand (read+write) MSHR miss cycles
system.cpu.dcache.overall_mshr_miss_latency::.switch_cpus.data 401919898290                       # number of overall MSHR miss cycles
system.cpu.dcache.overall_mshr_miss_latency::total 401919898290                       # number of overall MSHR miss cycles
system.cpu.dcache.demand_mshr_miss_rate::.switch_cpus.data     0.350622                       # mshr miss rate for demand accesses
system.cpu.dcache.demand_mshr_miss_rate::total     0.350622                       # mshr miss rate for demand accesses
system.cpu.dcache.overall_mshr_miss_rate::.switch_cpus.data     0.350622                       # mshr miss rate for overall accesses
system.cpu.dcache.overall_mshr_miss_rate::total     0.350622                       # mshr miss rate for overall accesses
system.cpu.dcache.demand_avg_mshr_miss_latency::.switch_cpus.data 51537.997523                       # average overall mshr miss latency
system.cpu.dcache.demand_avg_mshr_miss_latency::total 51537.997523                       # average overall mshr miss latency
system.cpu.dcache.overall_avg_mshr_miss_latency::.switch_cpus.data 51537.997523                       # average overall mshr miss latency
system.cpu.dcache.overall_avg_mshr_miss_latency::total 51537.997523                       # average overall mshr miss latency
system.cpu.dcache.replacements                7797492                       # number of replacements
system.cpu.dcache.ReadReq_hits::.cpu.data            1                       # number of ReadReq hits
system.cpu.dcache.ReadReq_hits::.switch_cpus.data      9029865                       # number of ReadReq hits
system.cpu.dcache.ReadReq_hits::total         9029866                       # number of ReadReq hits
system.cpu.dcache.ReadReq_misses::.cpu.data            3                       # number of ReadReq misses
system.cpu.dcache.ReadReq_misses::.switch_cpus.data      8599318                       # number of ReadReq misses
system.cpu.dcache.ReadReq_misses::total       8599321                       # number of ReadReq misses
system.cpu.dcache.ReadReq_miss_latency::.switch_cpus.data 451271131000                       # number of ReadReq miss cycles
system.cpu.dcache.ReadReq_miss_latency::total 451271131000                       # number of ReadReq miss cycles
system.cpu.dcache.ReadReq_accesses::.cpu.data            4                       # number of ReadReq accesses(hits+misses)
system.cpu.dcache.ReadReq_accesses::.switch_cpus.data     17629183                       # number of ReadReq accesses(hits+misses)
system.cpu.dcache.ReadReq_accesses::total     17629187                       # number of ReadReq accesses(hits+misses)
system.cpu.dcache.ReadReq_miss_rate::.cpu.data     0.750000                       # miss rate for ReadReq accesses
system.cpu.dcache.ReadReq_miss_rate::.switch_cpus.data     0.487789                       # miss rate for ReadReq accesses
system.cpu.dcache.ReadReq_miss_rate::total     0.487789                       # miss rate for ReadReq accesses
system.cpu.dcache.ReadReq_avg_miss_latency::.switch_cpus.data 52477.548917                       # average ReadReq miss latency
system.cpu.dcache.ReadReq_avg_miss_latency::total 52477.530610                       # average ReadReq miss latency
system.cpu.dcache.ReadReq_mshr_hits::.switch_cpus.data      1100278                       # number of ReadReq MSHR hits
system.cpu.dcache.ReadReq_mshr_hits::total      1100278                       # number of ReadReq MSHR hits
system.cpu.dcache.ReadReq_mshr_misses::.switch_cpus.data      7499040                       # number of ReadReq MSHR misses
system.cpu.dcache.ReadReq_mshr_misses::total      7499040                       # number of ReadReq MSHR misses
system.cpu.dcache.ReadReq_mshr_miss_latency::.switch_cpus.data 386154469500                       # number of ReadReq MSHR miss cycles
system.cpu.dcache.ReadReq_mshr_miss_latency::total 386154469500                       # number of ReadReq MSHR miss cycles
system.cpu.dcache.ReadReq_mshr_miss_rate::.switch_cpus.data     0.425376                       # mshr miss rate for ReadReq accesses
system.cpu.dcache.ReadReq_mshr_miss_rate::total     0.425376                       # mshr miss rate for ReadReq accesses
system.cpu.dcache.ReadReq_avg_mshr_miss_latency::.switch_cpus.data 51493.853813                       # average ReadReq mshr miss latency
system.cpu.dcache.ReadReq_avg_mshr_miss_latency::total 51493.853813                       # average ReadReq mshr miss latency
system.cpu.dcache.WriteReq_hits::.switch_cpus.data      4313278                       # number of WriteReq hits
system.cpu.dcache.WriteReq_hits::total        4313278                       # number of WriteReq hits
system.cpu.dcache.WriteReq_misses::.switch_cpus.data       299490                       # number of WriteReq misses
system.cpu.dcache.WriteReq_misses::total       299490                       # number of WriteReq misses
system.cpu.dcache.WriteReq_miss_latency::.switch_cpus.data  16065099788                       # number of WriteReq miss cycles
system.cpu.dcache.WriteReq_miss_latency::total  16065099788                       # number of WriteReq miss cycles
system.cpu.dcache.WriteReq_accesses::.switch_cpus.data      4612768                       # number of WriteReq accesses(hits+misses)
system.cpu.dcache.WriteReq_accesses::total      4612768                       # number of WriteReq accesses(hits+misses)
system.cpu.dcache.WriteReq_miss_rate::.switch_cpus.data     0.064926                       # miss rate for WriteReq accesses
system.cpu.dcache.WriteReq_miss_rate::total     0.064926                       # miss rate for WriteReq accesses
system.cpu.dcache.WriteReq_avg_miss_latency::.switch_cpus.data 53641.523216                       # average WriteReq miss latency
system.cpu.dcache.WriteReq_avg_miss_latency::total 53641.523216                       # average WriteReq miss latency
system.cpu.dcache.WriteReq_mshr_hits::.switch_cpus.data           14                       # number of WriteReq MSHR hits
system.cpu.dcache.WriteReq_mshr_hits::total           14                       # number of WriteReq MSHR hits
system.cpu.dcache.WriteReq_mshr_misses::.switch_cpus.data       299476                       # number of WriteReq MSHR misses
system.cpu.dcache.WriteReq_mshr_misses::total       299476                       # number of WriteReq MSHR misses
system.cpu.dcache.WriteReq_mshr_miss_latency::.switch_cpus.data  15765428790                       # number of WriteReq MSHR miss cycles
system.cpu.dcache.WriteReq_mshr_miss_latency::total  15765428790                       # number of WriteReq MSHR miss cycles
system.cpu.dcache.WriteReq_mshr_miss_rate::.switch_cpus.data     0.064923                       # mshr miss rate for WriteReq accesses
system.cpu.dcache.WriteReq_mshr_miss_rate::total     0.064923                       # mshr miss rate for WriteReq accesses
system.cpu.dcache.WriteReq_avg_mshr_miss_latency::.switch_cpus.data 52643.379737                       # average WriteReq mshr miss latency
system.cpu.dcache.WriteReq_avg_mshr_miss_latency::total 52643.379737                       # average WriteReq mshr miss latency
system.cpu.dcache.tags.pwrStateResidencyTicks::UNDEFINED 92989555466000                       # Cumulative time (in ticks) in various power states
system.cpu.dcache.tags.tagsinuse             2.295390                       # Cycle average of tags in use
system.cpu.dcache.tags.total_refs            21141660                       # Total number of references to valid blocks.
system.cpu.dcache.tags.sampled_refs           7798516                       # Sample count of references to valid blocks.
system.cpu.dcache.tags.avg_refs              2.710985                       # Average number of references to valid blocks.
system.cpu.dcache.tags.warmup_cycle      92781095431500                       # Cycle when the warmup percentage was hit.
system.cpu.dcache.tags.occ_blocks::.cpu.data     0.000001                       # Average occupied blocks per requestor
system.cpu.dcache.tags.occ_blocks::.switch_cpus.data     2.295389                       # Average occupied blocks per requestor
system.cpu.dcache.tags.occ_percent::.cpu.data     0.000000                       # Average percentage of cache occupancy
system.cpu.dcache.tags.occ_percent::.switch_cpus.data     0.002242                       # Average percentage of cache occupancy
system.cpu.dcache.tags.occ_percent::total     0.002242                       # Average percentage of cache occupancy
system.cpu.dcache.tags.occ_task_id_blocks::1024         1024                       # Occupied blocks per task id
system.cpu.dcache.tags.age_task_id_blocks_1024::0          431                       # Occupied blocks per task id
system.cpu.dcache.tags.age_task_id_blocks_1024::1          590                       # Occupied blocks per task id
system.cpu.dcache.tags.age_task_id_blocks_1024::2            3                       # Occupied blocks per task id
system.cpu.dcache.tags.occ_task_id_percent::1024            1                       # Percentage of cache occupancy per task id
system.cpu.dcache.tags.tag_accesses          52282426                       # Number of tag accesses
system.cpu.dcache.tags.data_accesses         52282426                       # Number of data accesses

---------- End Simulation Statistics   ----------
