
---------- Begin Simulation Statistics ----------
final_tick                               70892824338500                       # Number of ticks from beginning of simulation (restored from checkpoints and never reset)
host_inst_rate                                  58293                       # Simulator instruction rate (inst/s)
host_mem_usage                                 793500                       # Number of bytes of host memory used
host_op_rate                                    93434                       # Simulator op (including micro ops) rate (op/s)
host_seconds                                   171.55                       # Real time elapsed on the host
host_tick_rate                               15243985                       # Simulator tick rate (ticks/s)
sim_freq                                 1000000000000                       # Frequency of simulated ticks
sim_insts                                    10000010                       # Number of instructions simulated
sim_ops                                      16028373                       # Number of ops (including micro ops) simulated
sim_seconds                                  0.002615                       # Number of seconds simulated
sim_ticks                                  2615062250                       # Number of ticks simulated
system.cpu.committedInsts                          10                       # Number of instructions committed
system.cpu.committedOps                            14                       # Number of ops (including micro ops) committed
system.cpu.dtb.rdAccesses                           5                       # TLB accesses on read requests
system.cpu.dtb.rdMisses                             0                       # TLB misses on read requests
system.cpu.dtb.wrAccesses                           2                       # TLB accesses on write requests
system.cpu.dtb.wrMisses                             0                       # TLB misses on write requests
system.cpu.idle_fraction                            0                       # Percentage of idle cycles
system.cpu.itb.rdAccesses                           0                       # TLB accesses on read requests
system.cpu.itb.rdMisses                             0                       # TLB misses on read requests
system.cpu.itb.wrAccesses                          15                       # TLB accesses on write requests
system.cpu.itb.wrMisses                             0                       # TLB misses on write requests
system.cpu.not_idle_fraction                        1                       # Percentage of non-idle cycles
system.cpu.numCycles                               19                       # number of cpu cycles simulated
system.cpu.numWorkItemsCompleted                    0                       # number of work items this cpu completed
system.cpu.numWorkItemsStarted                      0                       # number of work items this cpu started
system.cpu.num_busy_cycles                         19                       # Number of busy cycles
system.cpu.num_cc_register_reads                   20                       # number of times the CC registers were read
system.cpu.num_cc_register_writes                   6                       # number of times the CC registers were written
system.cpu.num_conditional_control_insts            0                       # number of instructions that are conditional controls
system.cpu.num_fp_alu_accesses                      0                       # Number of float alu accesses
system.cpu.num_fp_insts                             0                       # number of float instructions
system.cpu.num_fp_register_reads                    0                       # number of times the floating registers were read
system.cpu.num_fp_register_writes                   0                       # number of times the floating registers were written
system.cpu.num_func_calls                           0                       # number of times a function call or return occured
system.cpu.num_idle_cycles                          0                       # Number of idle cycles
system.cpu.num_int_alu_accesses                    14                       # Number of integer alu accesses
system.cpu.num_int_insts                           14                       # number of integer instructions
system.cpu.num_int_register_reads                  41                       # number of times the integer registers were read
system.cpu.num_int_register_writes                 12                       # number of times the integer registers were written
system.cpu.num_load_insts                           5                       # Number of load instructions
system.cpu.num_mem_refs                             7                       # number of memory refs
system.cpu.num_store_insts                          2                       # Number of store instructions
system.cpu.num_vec_alu_accesses                     0                       # Number of vector alu accesses
system.cpu.num_vec_insts                            0                       # number of vector instructions
system.cpu.num_vec_register_reads                   0                       # number of times the vector registers were read
system.cpu.num_vec_register_writes                  0                       # number of times the vector registers were written
system.cpu.op_class::No_OpClass                     0      0.00%      0.00% # Class of executed instruction
system.cpu.op_class::IntAlu                         7     50.00%     50.00% # Class of executed instruction
system.cpu.op_class::IntMult                        0      0.00%     50.00% # Class of executed instruction
system.cpu.op_class::IntDiv                         0      0.00%     50.00% # Class of executed instruction
system.cpu.op_class::FloatAdd                       0      0.00%     50.00% # Class of executed instruction
system.cpu.op_class::FloatCmp                       0      0.00%     50.00% # Class of executed instruction
system.cpu.op_class::FloatCvt                       0      0.00%     50.00% # Class of executed instruction
system.cpu.op_class::FloatMult                      0      0.00%     50.00% # Class of executed instruction
system.cpu.op_class::FloatMultAcc                   0      0.00%     50.00% # Class of executed instruction
system.cpu.op_class::FloatDiv                       0      0.00%     50.00% # Class of executed instruction
system.cpu.op_class::FloatMisc                      0      0.00%     50.00% # Class of executed instruction
system.cpu.op_class::FloatSqrt                      0      0.00%     50.00% # Class of executed instruction
system.cpu.op_class::SimdAdd                        0      0.00%     50.00% # Class of executed instruction
system.cpu.op_class::SimdAddAcc                     0      0.00%     50.00% # Class of executed instruction
system.cpu.op_class::SimdAlu                        0      0.00%     50.00% # Class of executed instruction
system.cpu.op_class::SimdCmp                        0      0.00%     50.00% # Class of executed instruction
system.cpu.op_class::SimdCvt                        0      0.00%     50.00% # Class of executed instruction
system.cpu.op_class::SimdMisc                       0      0.00%     50.00% # Class of executed instruction
system.cpu.op_class::SimdMult                       0      0.00%     50.00% # Class of executed instruction
system.cpu.op_class::SimdMultAcc                    0      0.00%     50.00% # Class of executed instruction
system.cpu.op_class::SimdShift                      0      0.00%     50.00% # Class of executed instruction
system.cpu.op_class::SimdShiftAcc                   0      0.00%     50.00% # Class of executed instruction
system.cpu.op_class::SimdDiv                        0      0.00%     50.00% # Class of executed instruction
system.cpu.op_class::SimdSqrt                       0      0.00%     50.00% # Class of executed instruction
system.cpu.op_class::SimdFloatAdd                   0      0.00%     50.00% # Class of executed instruction
system.cpu.op_class::SimdFloatAlu                   0      0.00%     50.00% # Class of executed instruction
system.cpu.op_class::SimdFloatCmp                   0      0.00%     50.00% # Class of executed instruction
system.cpu.op_class::SimdFloatCvt                   0      0.00%     50.00% # Class of executed instruction
system.cpu.op_class::SimdFloatDiv                   0      0.00%     50.00% # Class of executed instruction
system.cpu.op_class::SimdFloatMisc                  0      0.00%     50.00% # Class of executed instruction
system.cpu.op_class::SimdFloatMult                  0      0.00%     50.00% # Class of executed instruction
system.cpu.op_class::SimdFloatMultAcc               0      0.00%     50.00% # Class of executed instruction
system.cpu.op_class::SimdFloatSqrt                  0      0.00%     50.00% # Class of executed instruction
system.cpu.op_class::SimdReduceAdd                  0      0.00%     50.00% # Class of executed instruction
system.cpu.op_class::SimdReduceAlu                  0      0.00%     50.00% # Class of executed instruction
system.cpu.op_class::SimdReduceCmp                  0      0.00%     50.00% # Class of executed instruction
system.cpu.op_class::SimdFloatReduceAdd             0      0.00%     50.00% # Class of executed instruction
system.cpu.op_class::SimdFloatReduceCmp             0      0.00%     50.00% # Class of executed instruction
system.cpu.op_class::SimdAes                        0      0.00%     50.00% # Class of executed instruction
system.cpu.op_class::SimdAesMix                     0      0.00%     50.00% # Class of executed instruction
system.cpu.op_class::SimdSha1Hash                   0      0.00%     50.00% # Class of executed instruction
system.cpu.op_class::SimdSha1Hash2                  0      0.00%     50.00% # Class of executed instruction
system.cpu.op_class::SimdSha256Hash                 0      0.00%     50.00% # Class of executed instruction
system.cpu.op_class::SimdSha256Hash2                0      0.00%     50.00% # Class of executed instruction
system.cpu.op_class::SimdShaSigma2                  0      0.00%     50.00% # Class of executed instruction
system.cpu.op_class::SimdShaSigma3                  0      0.00%     50.00% # Class of executed instruction
system.cpu.op_class::SimdPredAlu                    0      0.00%     50.00% # Class of executed instruction
system.cpu.op_class::MemRead                        5     35.71%     85.71% # Class of executed instruction
system.cpu.op_class::MemWrite                       2     14.29%    100.00% # Class of executed instruction
system.cpu.op_class::FloatMemRead                   0      0.00%    100.00% # Class of executed instruction
system.cpu.op_class::FloatMemWrite                  0      0.00%    100.00% # Class of executed instruction
system.cpu.op_class::IprAccess                      0      0.00%    100.00% # Class of executed instruction
system.cpu.op_class::InstPrefetch                   0      0.00%    100.00% # Class of executed instruction
system.cpu.op_class::total                         14                       # Class of executed instruction
system.cpu.workload.numSyscalls                     0                       # Number of system calls
system.membus.snoop_filter.hit_multi_requests            0                       # Number of requests hitting in the snoop filter with multiple (>1) holders of the requested data.
system.membus.snoop_filter.hit_multi_snoops            0                       # Number of snoops hitting in the snoop filter with multiple (>1) holders of the requested data.
system.membus.snoop_filter.hit_single_requests           22                       # Number of requests hitting in the snoop filter with a single holder of the requested data.
system.membus.snoop_filter.hit_single_snoops            0                       # Number of snoops hitting in the snoop filter with a single holder of the requested data.
system.membus.snoop_filter.tot_requests          3052                       # Total number of requests made to the snoop filter.
system.membus.snoop_filter.tot_snoops               0                       # Total number of snoops made to the snoop filter.
system.switch_cpus.branchPred.BTBCorrect            0                       # Number of correct BTB predictions (this stat may not work properly.
system.switch_cpus.branchPred.BTBHitPct      0.000000                       # BTB Hit Percentage
system.switch_cpus.branchPred.BTBHits               0                       # Number of BTB hits
system.switch_cpus.branchPred.BTBLookups       617903                       # Number of BTB lookups
system.switch_cpus.branchPred.RASInCorrect            1                       # Number of incorrect RAS predictions.
system.switch_cpus.branchPred.condIncorrect        18767                       # Number of conditional branches incorrect
system.switch_cpus.branchPred.condPredicted       858343                       # Number of conditional branches predicted
system.switch_cpus.branchPred.indirectHits       494800                       # Number of indirect target hits.
system.switch_cpus.branchPred.indirectLookups       617903                       # Number of indirect predictor lookups.
system.switch_cpus.branchPred.indirectMisses       123103                       # Number of indirect misses.
system.switch_cpus.branchPred.lookups          936910                       # Number of BP lookups
system.switch_cpus.branchPred.usedRAS           38927                       # Number of times the RAS was used to get a target.
system.switch_cpus.branchPredindirectMispredicted         2116                       # Number of mispredicted indirect branches.
system.switch_cpus.cc_regfile_reads          14091902                       # number of cc regfile reads
system.switch_cpus.cc_regfile_writes          7117878                       # number of cc regfile writes
system.switch_cpus.commit.amos                      0                       # Number of atomic instructions committed
system.switch_cpus.commit.branchMispredicts        18794                       # The number of times a branch was mispredicted
system.switch_cpus.commit.branches             714318                       # Number of branches committed
system.switch_cpus.commit.bw_lim_events       1276233                       # number cycles where commit BW limit reached
system.switch_cpus.commit.commitSquashedInsts      1183588                       # The number of squashed insts skipped by commit
system.switch_cpus.commit.committedInsts     10000000                       # Number of instructions committed
system.switch_cpus.commit.committedOps       16028359                       # Number of ops (including micro ops) committed
system.switch_cpus.commit.committed_per_cycle::samples      5062495                       # Number of insts commited each cycle
system.switch_cpus.commit.committed_per_cycle::mean     3.166099                       # Number of insts commited each cycle
system.switch_cpus.commit.committed_per_cycle::stdev     3.141195                       # Number of insts commited each cycle
system.switch_cpus.commit.committed_per_cycle::underflows            0      0.00%      0.00% # Number of insts commited each cycle
system.switch_cpus.commit.committed_per_cycle::0       826380     16.32%     16.32% # Number of insts commited each cycle
system.switch_cpus.commit.committed_per_cycle::1      1869277     36.92%     53.25% # Number of insts commited each cycle
system.switch_cpus.commit.committed_per_cycle::2       408755      8.07%     61.32% # Number of insts commited each cycle
system.switch_cpus.commit.committed_per_cycle::3       188889      3.73%     65.05% # Number of insts commited each cycle
system.switch_cpus.commit.committed_per_cycle::4       141814      2.80%     67.85% # Number of insts commited each cycle
system.switch_cpus.commit.committed_per_cycle::5       162132      3.20%     71.06% # Number of insts commited each cycle
system.switch_cpus.commit.committed_per_cycle::6       135980      2.69%     73.74% # Number of insts commited each cycle
system.switch_cpus.commit.committed_per_cycle::7        53035      1.05%     74.79% # Number of insts commited each cycle
system.switch_cpus.commit.committed_per_cycle::8      1276233     25.21%    100.00% # Number of insts commited each cycle
system.switch_cpus.commit.committed_per_cycle::overflows            0      0.00%    100.00% # Number of insts commited each cycle
system.switch_cpus.commit.committed_per_cycle::min_value            0                       # Number of insts commited each cycle
system.switch_cpus.commit.committed_per_cycle::max_value            8                       # Number of insts commited each cycle
system.switch_cpus.commit.committed_per_cycle::total      5062495                       # Number of insts commited each cycle
system.switch_cpus.commit.fp_insts            1417974                       # Number of committed floating point instructions.
system.switch_cpus.commit.function_calls        31902                       # Number of function calls committed.
system.switch_cpus.commit.int_insts          14812880                       # Number of committed integer instructions.
system.switch_cpus.commit.loads               3609577                       # Number of loads committed
system.switch_cpus.commit.membars                   0                       # Number of memory barriers committed
system.switch_cpus.commit.op_class_0::No_OpClass        95071      0.59%      0.59% # Class of committed instruction
system.switch_cpus.commit.op_class_0::IntAlu      9822899     61.28%     61.88% # Class of committed instruction
system.switch_cpus.commit.op_class_0::IntMult        84240      0.53%     62.40% # Class of committed instruction
system.switch_cpus.commit.op_class_0::IntDiv            0      0.00%     62.40% # Class of committed instruction
system.switch_cpus.commit.op_class_0::FloatAdd        32039      0.20%     62.60% # Class of committed instruction
system.switch_cpus.commit.op_class_0::FloatCmp            0      0.00%     62.60% # Class of committed instruction
system.switch_cpus.commit.op_class_0::FloatCvt            0      0.00%     62.60% # Class of committed instruction
system.switch_cpus.commit.op_class_0::FloatMult            0      0.00%     62.60% # Class of committed instruction
system.switch_cpus.commit.op_class_0::FloatMultAcc            0      0.00%     62.60% # Class of committed instruction
system.switch_cpus.commit.op_class_0::FloatDiv            0      0.00%     62.60% # Class of committed instruction
system.switch_cpus.commit.op_class_0::FloatMisc            0      0.00%     62.60% # Class of committed instruction
system.switch_cpus.commit.op_class_0::FloatSqrt            0      0.00%     62.60% # Class of committed instruction
system.switch_cpus.commit.op_class_0::SimdAdd        21142      0.13%     62.73% # Class of committed instruction
system.switch_cpus.commit.op_class_0::SimdAddAcc            0      0.00%     62.73% # Class of committed instruction
system.switch_cpus.commit.op_class_0::SimdAlu       327752      2.04%     64.78% # Class of committed instruction
system.switch_cpus.commit.op_class_0::SimdCmp            0      0.00%     64.78% # Class of committed instruction
system.switch_cpus.commit.op_class_0::SimdCvt       126470      0.79%     65.57% # Class of committed instruction
system.switch_cpus.commit.op_class_0::SimdMisc       158042      0.99%     66.55% # Class of committed instruction
system.switch_cpus.commit.op_class_0::SimdMult            0      0.00%     66.55% # Class of committed instruction
system.switch_cpus.commit.op_class_0::SimdMultAcc            0      0.00%     66.55% # Class of committed instruction
system.switch_cpus.commit.op_class_0::SimdShift        63426      0.40%     66.95% # Class of committed instruction
system.switch_cpus.commit.op_class_0::SimdShiftAcc            0      0.00%     66.95% # Class of committed instruction
system.switch_cpus.commit.op_class_0::SimdDiv            0      0.00%     66.95% # Class of committed instruction
system.switch_cpus.commit.op_class_0::SimdSqrt            0      0.00%     66.95% # Class of committed instruction
system.switch_cpus.commit.op_class_0::SimdFloatAdd       107090      0.67%     67.62% # Class of committed instruction
system.switch_cpus.commit.op_class_0::SimdFloatAlu            0      0.00%     67.62% # Class of committed instruction
system.switch_cpus.commit.op_class_0::SimdFloatCmp           27      0.00%     67.62% # Class of committed instruction
system.switch_cpus.commit.op_class_0::SimdFloatCvt       149566      0.93%     68.55% # Class of committed instruction
system.switch_cpus.commit.op_class_0::SimdFloatDiv        21087      0.13%     68.68% # Class of committed instruction
system.switch_cpus.commit.op_class_0::SimdFloatMisc            0      0.00%     68.68% # Class of committed instruction
system.switch_cpus.commit.op_class_0::SimdFloatMult        10842      0.07%     68.75% # Class of committed instruction
system.switch_cpus.commit.op_class_0::SimdFloatMultAcc            0      0.00%     68.75% # Class of committed instruction
system.switch_cpus.commit.op_class_0::SimdFloatSqrt            0      0.00%     68.75% # Class of committed instruction
system.switch_cpus.commit.op_class_0::SimdReduceAdd            0      0.00%     68.75% # Class of committed instruction
system.switch_cpus.commit.op_class_0::SimdReduceAlu            0      0.00%     68.75% # Class of committed instruction
system.switch_cpus.commit.op_class_0::SimdReduceCmp            0      0.00%     68.75% # Class of committed instruction
system.switch_cpus.commit.op_class_0::SimdFloatReduceAdd            0      0.00%     68.75% # Class of committed instruction
system.switch_cpus.commit.op_class_0::SimdFloatReduceCmp            0      0.00%     68.75% # Class of committed instruction
system.switch_cpus.commit.op_class_0::SimdAes            0      0.00%     68.75% # Class of committed instruction
system.switch_cpus.commit.op_class_0::SimdAesMix            0      0.00%     68.75% # Class of committed instruction
system.switch_cpus.commit.op_class_0::SimdSha1Hash            0      0.00%     68.75% # Class of committed instruction
system.switch_cpus.commit.op_class_0::SimdSha1Hash2            0      0.00%     68.75% # Class of committed instruction
system.switch_cpus.commit.op_class_0::SimdSha256Hash            0      0.00%     68.75% # Class of committed instruction
system.switch_cpus.commit.op_class_0::SimdSha256Hash2            0      0.00%     68.75% # Class of committed instruction
system.switch_cpus.commit.op_class_0::SimdShaSigma2            0      0.00%     68.75% # Class of committed instruction
system.switch_cpus.commit.op_class_0::SimdShaSigma3            0      0.00%     68.75% # Class of committed instruction
system.switch_cpus.commit.op_class_0::SimdPredAlu            0      0.00%     68.75% # Class of committed instruction
system.switch_cpus.commit.op_class_0::MemRead      3386158     21.13%     89.88% # Class of committed instruction
system.switch_cpus.commit.op_class_0::MemWrite      1398812      8.73%     98.60% # Class of committed instruction
system.switch_cpus.commit.op_class_0::FloatMemRead       223419      1.39%    100.00% # Class of committed instruction
system.switch_cpus.commit.op_class_0::FloatMemWrite          277      0.00%    100.00% # Class of committed instruction
system.switch_cpus.commit.op_class_0::IprAccess            0      0.00%    100.00% # Class of committed instruction
system.switch_cpus.commit.op_class_0::InstPrefetch            0      0.00%    100.00% # Class of committed instruction
system.switch_cpus.commit.op_class_0::total     16028359                       # Class of committed instruction
system.switch_cpus.commit.refs                5008666                       # Number of memory references committed
system.switch_cpus.commit.swp_count                 0                       # Number of s/w prefetches committed
system.switch_cpus.commit.vec_insts                 0                       # Number of committed Vector instructions.
system.switch_cpus.committedInsts            10000000                       # Number of Instructions Simulated
system.switch_cpus.committedOps              16028359                       # Number of Ops (including micro ops) Simulated
system.switch_cpus.cpi                       0.523010                       # CPI: Cycles Per Instruction
system.switch_cpus.cpi_total                 0.523010                       # CPI: Total CPI of All Threads
system.switch_cpus.decode.BlockedCycles       2337462                       # Number of cycles decode is blocked
system.switch_cpus.decode.DecodedInsts       17542809                       # Number of instructions handled by decode
system.switch_cpus.decode.IdleCycles           556007                       # Number of cycles decode is idle
system.switch_cpus.decode.RunCycles           1513594                       # Number of cycles decode is running
system.switch_cpus.decode.SquashCycles          19012                       # Number of cycles decode is squashing
system.switch_cpus.decode.UnblockCycles        794474                       # Number of cycles decode is unblocking
system.switch_cpus.dtb.rdAccesses             3687435                       # TLB accesses on read requests
system.switch_cpus.dtb.rdMisses                    73                       # TLB misses on read requests
system.switch_cpus.dtb.wrAccesses             1408866                       # TLB accesses on write requests
system.switch_cpus.dtb.wrMisses                    94                       # TLB misses on write requests
system.switch_cpus.fetch.Branches              936910                       # Number of branches that fetch encountered
system.switch_cpus.fetch.CacheLines            843241                       # Number of cache lines fetched
system.switch_cpus.fetch.Cycles               4345583                       # Number of cycles fetch has run and was not squashing or blocked
system.switch_cpus.fetch.IcacheSquashes          3166                       # Number of outstanding Icache misses that were squashed
system.switch_cpus.fetch.Insts               10906458                       # Number of instructions fetch has processed
system.switch_cpus.fetch.MiscStallCycles           27                       # Number of cycles fetch has spent waiting on interrupts, or bad addresses, or out of MSHRs
system.switch_cpus.fetch.PendingTrapStallCycles          164                       # Number of stall cycles due to pending traps
system.switch_cpus.fetch.SquashCycles           38024                       # Number of cycles fetch has spent squashing
system.switch_cpus.fetch.branchRate          0.179138                       # Number of branch fetches per cycle
system.switch_cpus.fetch.icacheStallCycles       855769                       # Number of cycles fetch is stalled on an Icache miss
system.switch_cpus.fetch.predictedBranches       533727                       # Number of branches that fetch has predicted taken
system.switch_cpus.fetch.rate                2.085323                       # Number of inst fetches per cycle
system.switch_cpus.fetch.rateDist::samples      5220555                       # Number of instructions fetched each cycle (Total)
system.switch_cpus.fetch.rateDist::mean      3.402803                       # Number of instructions fetched each cycle (Total)
system.switch_cpus.fetch.rateDist::stdev     3.551722                       # Number of instructions fetched each cycle (Total)
system.switch_cpus.fetch.rateDist::underflows            0      0.00%      0.00% # Number of instructions fetched each cycle (Total)
system.switch_cpus.fetch.rateDist::0          2423121     46.42%     46.42% # Number of instructions fetched each cycle (Total)
system.switch_cpus.fetch.rateDist::1           139143      2.67%     49.08% # Number of instructions fetched each cycle (Total)
system.switch_cpus.fetch.rateDist::2           104447      2.00%     51.08% # Number of instructions fetched each cycle (Total)
system.switch_cpus.fetch.rateDist::3           148464      2.84%     53.92% # Number of instructions fetched each cycle (Total)
system.switch_cpus.fetch.rateDist::4           181890      3.48%     57.41% # Number of instructions fetched each cycle (Total)
system.switch_cpus.fetch.rateDist::5           337711      6.47%     63.88% # Number of instructions fetched each cycle (Total)
system.switch_cpus.fetch.rateDist::6           168959      3.24%     67.11% # Number of instructions fetched each cycle (Total)
system.switch_cpus.fetch.rateDist::7           193339      3.70%     70.82% # Number of instructions fetched each cycle (Total)
system.switch_cpus.fetch.rateDist::8          1523481     29.18%    100.00% # Number of instructions fetched each cycle (Total)
system.switch_cpus.fetch.rateDist::overflows            0      0.00%    100.00% # Number of instructions fetched each cycle (Total)
system.switch_cpus.fetch.rateDist::min_value            0                       # Number of instructions fetched each cycle (Total)
system.switch_cpus.fetch.rateDist::max_value            8                       # Number of instructions fetched each cycle (Total)
system.switch_cpus.fetch.rateDist::total      5220555                       # Number of instructions fetched each cycle (Total)
system.switch_cpus.fp_regfile_reads           2734337                       # number of floating regfile reads
system.switch_cpus.fp_regfile_writes          1361979                       # number of floating regfile writes
system.switch_cpus.idleCycles                    9549                       # Total number of cycles that the CPU has spent unscheduled due to idling
system.switch_cpus.iew.branchMispredicts        32481                       # Number of branch mispredicts detected at execute
system.switch_cpus.iew.exec_branches           776091                       # Number of branches executed
system.switch_cpus.iew.exec_nop                     0                       # number of nop insts executed
system.switch_cpus.iew.exec_rate             3.197106                       # Inst execution rate
system.switch_cpus.iew.exec_refs              5090881                       # number of memory reference insts executed
system.switch_cpus.iew.exec_stores            1408866                       # Number of stores executed
system.switch_cpus.iew.exec_swp                     0                       # number of swp insts executed
system.switch_cpus.iew.iewBlockCycles          139945                       # Number of cycles IEW is blocking
system.switch_cpus.iew.iewDispLoadInsts       3712904                       # Number of dispatched load instructions
system.switch_cpus.iew.iewDispNonSpecInsts            5                       # Number of dispatched non-speculative instructions
system.switch_cpus.iew.iewDispSquashedInsts          273                       # Number of squashed instructions skipped by dispatch
system.switch_cpus.iew.iewDispStoreInsts      1422878                       # Number of dispatched store instructions
system.switch_cpus.iew.iewDispatchedInsts     17211982                       # Number of instructions dispatched to IQ
system.switch_cpus.iew.iewExecLoadInsts       3682015                       # Number of load instructions executed
system.switch_cpus.iew.iewExecSquashedInsts        29890                       # Number of squashed instructions skipped in execute
system.switch_cpus.iew.iewExecutedInsts      16721199                       # Number of executed instructions
system.switch_cpus.iew.iewIQFullEvents            100                       # Number of times the IQ has become full, causing a stall
system.switch_cpus.iew.iewIdleCycles                0                       # Number of cycles IEW is idle
system.switch_cpus.iew.iewLSQFullEvents         47646                       # Number of times the LSQ has become full, causing a stall
system.switch_cpus.iew.iewSquashCycles          19012                       # Number of cycles IEW is squashing
system.switch_cpus.iew.iewUnblockCycles         48623                       # Number of cycles IEW is unblocking
system.switch_cpus.iew.lsq.thread0.blockedLoads            0                       # Number of blocked loads due to partial load-store forwarding
system.switch_cpus.iew.lsq.thread0.cacheBlocked          168                       # Number of times an access to memory failed due to the cache being blocked
system.switch_cpus.iew.lsq.thread0.forwLoads       392591                       # Number of loads that had data forwarded from stores
system.switch_cpus.iew.lsq.thread0.ignoredResponses           44                       # Number of memory responses ignored because the instruction is squashed
system.switch_cpus.iew.lsq.thread0.invAddrLoads            0                       # Number of loads ignored due to an invalid address
system.switch_cpus.iew.lsq.thread0.invAddrSwpfs            0                       # Number of software prefetches ignored due to an invalid address
system.switch_cpus.iew.lsq.thread0.memOrderViolation          248                       # Number of memory ordering violations
system.switch_cpus.iew.lsq.thread0.rescheduledLoads            0                       # Number of loads that were rescheduled
system.switch_cpus.iew.lsq.thread0.squashedLoads       103315                       # Number of loads squashed
system.switch_cpus.iew.lsq.thread0.squashedStores        23779                       # Number of stores squashed
system.switch_cpus.iew.memOrderViolationEvents          248                       # Number of memory order violations
system.switch_cpus.iew.predictedNotTakenIncorrect        27832                       # Number of branches that were predicted not taken incorrectly
system.switch_cpus.iew.predictedTakenIncorrect         4649                       # Number of branches that were predicted taken incorrectly
system.switch_cpus.iew.wb_consumers          26942309                       # num instructions consuming a value
system.switch_cpus.iew.wb_count              16705801                       # cumulative count of insts written-back
system.switch_cpus.iew.wb_fanout             0.497754                       # average fanout of values written-back
system.switch_cpus.iew.wb_producers          13410647                       # num instructions producing a value
system.switch_cpus.iew.wb_rate               3.194162                       # insts written-back per cycle
system.switch_cpus.iew.wb_sent               16712253                       # cumulative count of insts sent to commit
system.switch_cpus.int_regfile_reads         28976851                       # number of integer regfile reads
system.switch_cpus.int_regfile_writes        13056379                       # number of integer regfile writes
system.switch_cpus.ipc                       1.912008                       # IPC: Instructions Per Cycle
system.switch_cpus.ipc_total                 1.912008                       # IPC: Total IPC of All Threads
system.switch_cpus.iq.FU_type_0::No_OpClass        99778      0.60%      0.60% # Type of FU issued
system.switch_cpus.iq.FU_type_0::IntAlu      10366529     61.89%     62.48% # Type of FU issued
system.switch_cpus.iq.FU_type_0::IntMult        85864      0.51%     62.99% # Type of FU issued
system.switch_cpus.iq.FU_type_0::IntDiv             0      0.00%     62.99% # Type of FU issued
system.switch_cpus.iq.FU_type_0::FloatAdd        34519      0.21%     63.20% # Type of FU issued
system.switch_cpus.iq.FU_type_0::FloatCmp            0      0.00%     63.20% # Type of FU issued
system.switch_cpus.iq.FU_type_0::FloatCvt            0      0.00%     63.20% # Type of FU issued
system.switch_cpus.iq.FU_type_0::FloatMult            0      0.00%     63.20% # Type of FU issued
system.switch_cpus.iq.FU_type_0::FloatMultAcc            0      0.00%     63.20% # Type of FU issued
system.switch_cpus.iq.FU_type_0::FloatDiv            0      0.00%     63.20% # Type of FU issued
system.switch_cpus.iq.FU_type_0::FloatMisc            0      0.00%     63.20% # Type of FU issued
system.switch_cpus.iq.FU_type_0::FloatSqrt            0      0.00%     63.20% # Type of FU issued
system.switch_cpus.iq.FU_type_0::SimdAdd        21142      0.13%     63.33% # Type of FU issued
system.switch_cpus.iq.FU_type_0::SimdAddAcc            0      0.00%     63.33% # Type of FU issued
system.switch_cpus.iq.FU_type_0::SimdAlu       341192      2.04%     65.36% # Type of FU issued
system.switch_cpus.iq.FU_type_0::SimdCmp            0      0.00%     65.36% # Type of FU issued
system.switch_cpus.iq.FU_type_0::SimdCvt       128716      0.77%     66.13% # Type of FU issued
system.switch_cpus.iq.FU_type_0::SimdMisc       159896      0.95%     67.09% # Type of FU issued
system.switch_cpus.iq.FU_type_0::SimdMult            0      0.00%     67.09% # Type of FU issued
system.switch_cpus.iq.FU_type_0::SimdMultAcc            0      0.00%     67.09% # Type of FU issued
system.switch_cpus.iq.FU_type_0::SimdShift        63476      0.38%     67.46% # Type of FU issued
system.switch_cpus.iq.FU_type_0::SimdShiftAcc            0      0.00%     67.46% # Type of FU issued
system.switch_cpus.iq.FU_type_0::SimdDiv            0      0.00%     67.46% # Type of FU issued
system.switch_cpus.iq.FU_type_0::SimdSqrt            0      0.00%     67.46% # Type of FU issued
system.switch_cpus.iq.FU_type_0::SimdFloatAdd       138779      0.83%     68.29% # Type of FU issued
system.switch_cpus.iq.FU_type_0::SimdFloatAlu            0      0.00%     68.29% # Type of FU issued
system.switch_cpus.iq.FU_type_0::SimdFloatCmp           41      0.00%     68.29% # Type of FU issued
system.switch_cpus.iq.FU_type_0::SimdFloatCvt       175534      1.05%     69.34% # Type of FU issued
system.switch_cpus.iq.FU_type_0::SimdFloatDiv        23011      0.14%     69.48% # Type of FU issued
system.switch_cpus.iq.FU_type_0::SimdFloatMisc            0      0.00%     69.48% # Type of FU issued
system.switch_cpus.iq.FU_type_0::SimdFloatMult        12789      0.08%     69.56% # Type of FU issued
system.switch_cpus.iq.FU_type_0::SimdFloatMultAcc            0      0.00%     69.56% # Type of FU issued
system.switch_cpus.iq.FU_type_0::SimdFloatSqrt            0      0.00%     69.56% # Type of FU issued
system.switch_cpus.iq.FU_type_0::SimdReduceAdd            0      0.00%     69.56% # Type of FU issued
system.switch_cpus.iq.FU_type_0::SimdReduceAlu            0      0.00%     69.56% # Type of FU issued
system.switch_cpus.iq.FU_type_0::SimdReduceCmp            0      0.00%     69.56% # Type of FU issued
system.switch_cpus.iq.FU_type_0::SimdFloatReduceAdd            0      0.00%     69.56% # Type of FU issued
system.switch_cpus.iq.FU_type_0::SimdFloatReduceCmp            0      0.00%     69.56% # Type of FU issued
system.switch_cpus.iq.FU_type_0::SimdAes            0      0.00%     69.56% # Type of FU issued
system.switch_cpus.iq.FU_type_0::SimdAesMix            0      0.00%     69.56% # Type of FU issued
system.switch_cpus.iq.FU_type_0::SimdSha1Hash            0      0.00%     69.56% # Type of FU issued
system.switch_cpus.iq.FU_type_0::SimdSha1Hash2            0      0.00%     69.56% # Type of FU issued
system.switch_cpus.iq.FU_type_0::SimdSha256Hash            0      0.00%     69.56% # Type of FU issued
system.switch_cpus.iq.FU_type_0::SimdSha256Hash2            0      0.00%     69.56% # Type of FU issued
system.switch_cpus.iq.FU_type_0::SimdShaSigma2            0      0.00%     69.56% # Type of FU issued
system.switch_cpus.iq.FU_type_0::SimdShaSigma3            0      0.00%     69.56% # Type of FU issued
system.switch_cpus.iq.FU_type_0::SimdPredAlu            0      0.00%     69.56% # Type of FU issued
system.switch_cpus.iq.FU_type_0::MemRead      3411164     20.36%     89.92% # Type of FU issued
system.switch_cpus.iq.FU_type_0::MemWrite      1409960      8.42%     98.34% # Type of FU issued
system.switch_cpus.iq.FU_type_0::FloatMemRead       278315      1.66%    100.00% # Type of FU issued
system.switch_cpus.iq.FU_type_0::FloatMemWrite          385      0.00%    100.00% # Type of FU issued
system.switch_cpus.iq.FU_type_0::IprAccess            0      0.00%    100.00% # Type of FU issued
system.switch_cpus.iq.FU_type_0::InstPrefetch            0      0.00%    100.00% # Type of FU issued
system.switch_cpus.iq.FU_type_0::total       16751090                       # Type of FU issued
system.switch_cpus.iq.fp_alu_accesses         1576412                       # Number of floating point alu accesses
system.switch_cpus.iq.fp_inst_queue_reads      3132801                       # Number of floating instruction queue reads
system.switch_cpus.iq.fp_inst_queue_wakeup_accesses      1539559                       # Number of floating instruction queue wakeup accesses
system.switch_cpus.iq.fp_inst_queue_writes      1884376                       # Number of floating instruction queue writes
system.switch_cpus.iq.fu_busy_cnt              195829                       # FU busy when requested
system.switch_cpus.iq.fu_busy_rate           0.011691                       # FU busy rate (busy events/executed inst)
system.switch_cpus.iq.fu_full::No_OpClass            0      0.00%      0.00% # attempts to use FU when none available
system.switch_cpus.iq.fu_full::IntAlu          115576     59.02%     59.02% # attempts to use FU when none available
system.switch_cpus.iq.fu_full::IntMult              0      0.00%     59.02% # attempts to use FU when none available
system.switch_cpus.iq.fu_full::IntDiv               0      0.00%     59.02% # attempts to use FU when none available
system.switch_cpus.iq.fu_full::FloatAdd             0      0.00%     59.02% # attempts to use FU when none available
system.switch_cpus.iq.fu_full::FloatCmp             0      0.00%     59.02% # attempts to use FU when none available
system.switch_cpus.iq.fu_full::FloatCvt             0      0.00%     59.02% # attempts to use FU when none available
system.switch_cpus.iq.fu_full::FloatMult            0      0.00%     59.02% # attempts to use FU when none available
system.switch_cpus.iq.fu_full::FloatMultAcc            0      0.00%     59.02% # attempts to use FU when none available
system.switch_cpus.iq.fu_full::FloatDiv             0      0.00%     59.02% # attempts to use FU when none available
system.switch_cpus.iq.fu_full::FloatMisc            0      0.00%     59.02% # attempts to use FU when none available
system.switch_cpus.iq.fu_full::FloatSqrt            0      0.00%     59.02% # attempts to use FU when none available
system.switch_cpus.iq.fu_full::SimdAdd              0      0.00%     59.02% # attempts to use FU when none available
system.switch_cpus.iq.fu_full::SimdAddAcc            0      0.00%     59.02% # attempts to use FU when none available
system.switch_cpus.iq.fu_full::SimdAlu             55      0.03%     59.05% # attempts to use FU when none available
system.switch_cpus.iq.fu_full::SimdCmp              0      0.00%     59.05% # attempts to use FU when none available
system.switch_cpus.iq.fu_full::SimdCvt           3399      1.74%     60.78% # attempts to use FU when none available
system.switch_cpus.iq.fu_full::SimdMisc            24      0.01%     60.79% # attempts to use FU when none available
system.switch_cpus.iq.fu_full::SimdMult             0      0.00%     60.79% # attempts to use FU when none available
system.switch_cpus.iq.fu_full::SimdMultAcc            0      0.00%     60.79% # attempts to use FU when none available
system.switch_cpus.iq.fu_full::SimdShift            0      0.00%     60.79% # attempts to use FU when none available
system.switch_cpus.iq.fu_full::SimdShiftAcc            0      0.00%     60.79% # attempts to use FU when none available
system.switch_cpus.iq.fu_full::SimdDiv              0      0.00%     60.79% # attempts to use FU when none available
system.switch_cpus.iq.fu_full::SimdSqrt             0      0.00%     60.79% # attempts to use FU when none available
system.switch_cpus.iq.fu_full::SimdFloatAdd         2545      1.30%     62.09% # attempts to use FU when none available
system.switch_cpus.iq.fu_full::SimdFloatAlu            0      0.00%     62.09% # attempts to use FU when none available
system.switch_cpus.iq.fu_full::SimdFloatCmp            0      0.00%     62.09% # attempts to use FU when none available
system.switch_cpus.iq.fu_full::SimdFloatCvt         9978      5.10%     67.19% # attempts to use FU when none available
system.switch_cpus.iq.fu_full::SimdFloatDiv            0      0.00%     67.19% # attempts to use FU when none available
system.switch_cpus.iq.fu_full::SimdFloatMisc            0      0.00%     67.19% # attempts to use FU when none available
system.switch_cpus.iq.fu_full::SimdFloatMult            0      0.00%     67.19% # attempts to use FU when none available
system.switch_cpus.iq.fu_full::SimdFloatMultAcc            0      0.00%     67.19% # attempts to use FU when none available
system.switch_cpus.iq.fu_full::SimdFloatSqrt            0      0.00%     67.19% # attempts to use FU when none available
system.switch_cpus.iq.fu_full::SimdReduceAdd            0      0.00%     67.19% # attempts to use FU when none available
system.switch_cpus.iq.fu_full::SimdReduceAlu            0      0.00%     67.19% # attempts to use FU when none available
system.switch_cpus.iq.fu_full::SimdReduceCmp            0      0.00%     67.19% # attempts to use FU when none available
system.switch_cpus.iq.fu_full::SimdFloatReduceAdd            0      0.00%     67.19% # attempts to use FU when none available
system.switch_cpus.iq.fu_full::SimdFloatReduceCmp            0      0.00%     67.19% # attempts to use FU when none available
system.switch_cpus.iq.fu_full::SimdAes              0      0.00%     67.19% # attempts to use FU when none available
system.switch_cpus.iq.fu_full::SimdAesMix            0      0.00%     67.19% # attempts to use FU when none available
system.switch_cpus.iq.fu_full::SimdSha1Hash            0      0.00%     67.19% # attempts to use FU when none available
system.switch_cpus.iq.fu_full::SimdSha1Hash2            0      0.00%     67.19% # attempts to use FU when none available
system.switch_cpus.iq.fu_full::SimdSha256Hash            0      0.00%     67.19% # attempts to use FU when none available
system.switch_cpus.iq.fu_full::SimdSha256Hash2            0      0.00%     67.19% # attempts to use FU when none available
system.switch_cpus.iq.fu_full::SimdShaSigma2            0      0.00%     67.19% # attempts to use FU when none available
system.switch_cpus.iq.fu_full::SimdShaSigma3            0      0.00%     67.19% # attempts to use FU when none available
system.switch_cpus.iq.fu_full::SimdPredAlu            0      0.00%     67.19% # attempts to use FU when none available
system.switch_cpus.iq.fu_full::MemRead          59087     30.17%     97.36% # attempts to use FU when none available
system.switch_cpus.iq.fu_full::MemWrite           901      0.46%     97.82% # attempts to use FU when none available
system.switch_cpus.iq.fu_full::FloatMemRead         4263      2.18%    100.00% # attempts to use FU when none available
system.switch_cpus.iq.fu_full::FloatMemWrite            1      0.00%    100.00% # attempts to use FU when none available
system.switch_cpus.iq.fu_full::IprAccess            0      0.00%    100.00% # attempts to use FU when none available
system.switch_cpus.iq.fu_full::InstPrefetch            0      0.00%    100.00% # attempts to use FU when none available
system.switch_cpus.iq.int_alu_accesses       15270729                       # Number of integer alu accesses
system.switch_cpus.iq.int_inst_queue_reads     35863133                       # Number of integer instruction queue reads
system.switch_cpus.iq.int_inst_queue_wakeup_accesses     15166242                       # Number of integer instruction queue wakeup accesses
system.switch_cpus.iq.int_inst_queue_writes     16511419                       # Number of integer instruction queue writes
system.switch_cpus.iq.iqInstsAdded           17211963                       # Number of instructions added to the IQ (excludes non-spec)
system.switch_cpus.iq.iqInstsIssued          16751090                       # Number of instructions issued
system.switch_cpus.iq.iqNonSpecInstsAdded           19                       # Number of non-speculative instructions added to the IQ
system.switch_cpus.iq.iqSquashedInstsExamined      1183567                       # Number of squashed instructions iterated over during squash; mainly for profiling
system.switch_cpus.iq.iqSquashedInstsIssued        77371                       # Number of squashed instructions issued
system.switch_cpus.iq.iqSquashedNonSpecRemoved           19                       # Number of squashed non-spec instructions that were removed
system.switch_cpus.iq.iqSquashedOperandsExamined      1716771                       # Number of squashed operands that are examined and possibly removed from graph
system.switch_cpus.iq.issued_per_cycle::samples      5220555                       # Number of insts issued each cycle
system.switch_cpus.iq.issued_per_cycle::mean     3.208680                       # Number of insts issued each cycle
system.switch_cpus.iq.issued_per_cycle::stdev     2.260053                       # Number of insts issued each cycle
system.switch_cpus.iq.issued_per_cycle::underflows            0      0.00%      0.00% # Number of insts issued each cycle
system.switch_cpus.iq.issued_per_cycle::0       745357     14.28%     14.28% # Number of insts issued each cycle
system.switch_cpus.iq.issued_per_cycle::1       579411     11.10%     25.38% # Number of insts issued each cycle
system.switch_cpus.iq.issued_per_cycle::2       855889     16.39%     41.77% # Number of insts issued each cycle
system.switch_cpus.iq.issued_per_cycle::3       830131     15.90%     57.67% # Number of insts issued each cycle
system.switch_cpus.iq.issued_per_cycle::4       734224     14.06%     71.74% # Number of insts issued each cycle
system.switch_cpus.iq.issued_per_cycle::5       610697     11.70%     83.43% # Number of insts issued each cycle
system.switch_cpus.iq.issued_per_cycle::6       334976      6.42%     89.85% # Number of insts issued each cycle
system.switch_cpus.iq.issued_per_cycle::7       269689      5.17%     95.02% # Number of insts issued each cycle
system.switch_cpus.iq.issued_per_cycle::8       260181      4.98%    100.00% # Number of insts issued each cycle
system.switch_cpus.iq.issued_per_cycle::overflows            0      0.00%    100.00% # Number of insts issued each cycle
system.switch_cpus.iq.issued_per_cycle::min_value            0                       # Number of insts issued each cycle
system.switch_cpus.iq.issued_per_cycle::max_value            8                       # Number of insts issued each cycle
system.switch_cpus.iq.issued_per_cycle::total      5220555                       # Number of insts issued each cycle
system.switch_cpus.iq.rate                   3.202822                       # Inst issue rate
system.switch_cpus.iq.vec_alu_accesses              0                       # Number of vector alu accesses
system.switch_cpus.iq.vec_inst_queue_reads            0                       # Number of vector instruction queue reads
system.switch_cpus.iq.vec_inst_queue_wakeup_accesses            0                       # Number of vector instruction queue wakeup accesses
system.switch_cpus.iq.vec_inst_queue_writes            0                       # Number of vector instruction queue writes
system.switch_cpus.itb.rdAccesses                   0                       # TLB accesses on read requests
system.switch_cpus.itb.rdMisses                     0                       # TLB misses on read requests
system.switch_cpus.itb.wrAccesses              843269                       # TLB accesses on write requests
system.switch_cpus.itb.wrMisses                    44                       # TLB misses on write requests
system.switch_cpus.memDep0.conflictingLoads       367478                       # Number of conflicting loads.
system.switch_cpus.memDep0.conflictingStores       256726                       # Number of conflicting stores.
system.switch_cpus.memDep0.insertedLoads      3712904                       # Number of loads inserted to the mem dependence unit.
system.switch_cpus.memDep0.insertedStores      1422878                       # Number of stores inserted to the mem dependence unit.
system.switch_cpus.misc_regfile_reads         6711973                       # number of misc regfile reads
system.switch_cpus.misc_regfile_writes              1                       # number of misc regfile writes
system.switch_cpus.numCycles                  5230104                       # number of cpu cycles simulated
system.switch_cpus.numWorkItemsCompleted            0                       # number of work items this cpu completed
system.switch_cpus.numWorkItemsStarted              0                       # number of work items this cpu started
system.switch_cpus.rename.BlockCycles          218223                       # Number of cycles rename is blocking
system.switch_cpus.rename.CommittedMaps      20724563                       # Number of HB maps that are committed
system.switch_cpus.rename.IQFullEvents         129614                       # Number of times rename has blocked due to IQ full
system.switch_cpus.rename.IdleCycles           870147                       # Number of cycles rename is idle
system.switch_cpus.rename.LQFullEvents         433233                       # Number of times rename has blocked due to LQ full
system.switch_cpus.rename.ROBFullEvents          2862                       # Number of times rename has blocked due to ROB full
system.switch_cpus.rename.RenameLookups      54788217                       # Number of register rename lookups that rename has made
system.switch_cpus.rename.RenamedInsts       17432567                       # Number of instructions processed by rename
system.switch_cpus.rename.RenamedOperands     22406951                       # Number of destination operands rename has renamed
system.switch_cpus.rename.RunCycles           1983664                       # Number of cycles rename is running
system.switch_cpus.rename.SQFullEvents        1300994                       # Number of times rename has blocked due to SQ full
system.switch_cpus.rename.SquashCycles          19012                       # Number of cycles rename is squashing
system.switch_cpus.rename.UnblockCycles       2129503                       # Number of cycles rename is unblocking
system.switch_cpus.rename.UndoneMaps          1682307                       # Number of HB maps that are undone due to squashing
system.switch_cpus.rename.fp_rename_lookups      2997280                       # Number of floating rename lookups
system.switch_cpus.rename.int_rename_lookups     29940385                       # Number of integer rename lookups
system.switch_cpus.rename.serializeStallCycles            0                       # count of cycles rename stalled for serializing inst
system.switch_cpus.rename.serializingInsts            0                       # count of serializing insts renamed
system.switch_cpus.rename.skidInsts           4160724                       # count of insts added to the skid buffer
system.switch_cpus.rename.tempSerializingInsts            0                       # count of temporary serializing insts renamed
system.switch_cpus.rob.rob_reads             20998209                       # The number of ROB reads
system.switch_cpus.rob.rob_writes            34582580                       # The number of ROB writes
system.switch_cpus.timesIdled                     149                       # Number of times that the entire CPU went into an idle state and unscheduled itself
system.tol2bus.snoop_filter.hit_multi_requests            0                       # Number of requests hitting in the snoop filter with multiple (>1) holders of the requested data.
system.tol2bus.snoop_filter.hit_multi_snoops            0                       # Number of snoops hitting in the snoop filter with multiple (>1) holders of the requested data.
system.tol2bus.snoop_filter.hit_single_requests        24548                       # Number of requests hitting in the snoop filter with a single holder of the requested data.
system.tol2bus.snoop_filter.hit_single_snoops           68                       # Number of snoops hitting in the snoop filter with a single holder of the requested data.
system.tol2bus.snoop_filter.tot_requests        50245                       # Total number of requests made to the snoop filter.
system.tol2bus.snoop_filter.tot_snoops             68                       # Total number of snoops made to the snoop filter.
system.membus.pwrStateResidencyTicks::UNDEFINED 70892824338500                       # Cumulative time (in ticks) in various power states
system.membus.trans_dist::ReadResp                703                       # Transaction distribution
system.membus.trans_dist::WritebackDirty           13                       # Transaction distribution
system.membus.trans_dist::CleanEvict                9                       # Transaction distribution
system.membus.trans_dist::ReadExReq              2327                       # Transaction distribution
system.membus.trans_dist::ReadExResp             2327                       # Transaction distribution
system.membus.trans_dist::ReadSharedReq           703                       # Transaction distribution
system.membus.pkt_count_system.l2.mem_side::system.mem_ctrls.port         6082                       # Packet count per connected master and slave (bytes)
system.membus.pkt_count_system.l2.mem_side::total         6082                       # Packet count per connected master and slave (bytes)
system.membus.pkt_count::total                   6082                       # Packet count per connected master and slave (bytes)
system.membus.pkt_size_system.l2.mem_side::system.mem_ctrls.port       194752                       # Cumulative packet size per connected master and slave (bytes)
system.membus.pkt_size_system.l2.mem_side::total       194752                       # Cumulative packet size per connected master and slave (bytes)
system.membus.pkt_size::total                  194752                       # Cumulative packet size per connected master and slave (bytes)
system.membus.snoops                                0                       # Total snoops (count)
system.membus.snoopTraffic                          0                       # Total snoop traffic (bytes)
system.membus.snoop_fanout::samples              3030                       # Request fanout histogram
system.membus.snoop_fanout::mean                    0                       # Request fanout histogram
system.membus.snoop_fanout::stdev                   0                       # Request fanout histogram
system.membus.snoop_fanout::underflows              0      0.00%      0.00% # Request fanout histogram
system.membus.snoop_fanout::0                    3030    100.00%    100.00% # Request fanout histogram
system.membus.snoop_fanout::1                       0      0.00%    100.00% # Request fanout histogram
system.membus.snoop_fanout::overflows               0      0.00%    100.00% # Request fanout histogram
system.membus.snoop_fanout::min_value               0                       # Request fanout histogram
system.membus.snoop_fanout::max_value               0                       # Request fanout histogram
system.membus.snoop_fanout::total                3030                       # Request fanout histogram
system.membus.reqLayer2.occupancy             3746000                       # Layer occupancy (ticks)
system.membus.reqLayer2.utilization               0.1                       # Layer utilization (%)
system.membus.respLayer1.occupancy           16114000                       # Layer occupancy (ticks)
system.membus.respLayer1.utilization              0.6                       # Layer utilization (%)
system.switch_cpus.pwrStateResidencyTicks::OFF   2615062250                       # Cumulative time (in ticks) in various power states
system.switch_cpus.dtb.walker.pwrStateResidencyTicks::UNDEFINED 70892824338500                       # Cumulative time (in ticks) in various power states
system.switch_cpus.itb.walker.pwrStateResidencyTicks::UNDEFINED 70892824338500                       # Cumulative time (in ticks) in various power states
system.tol2bus.pwrStateResidencyTicks::UNDEFINED 70892824338500                       # Cumulative time (in ticks) in various power states
system.tol2bus.trans_dist::ReadResp              5819                       # Transaction distribution
system.tol2bus.trans_dist::WritebackDirty        19570                       # Transaction distribution
system.tol2bus.trans_dist::WritebackClean          214                       # Transaction distribution
system.tol2bus.trans_dist::CleanEvict            4853                       # Transaction distribution
system.tol2bus.trans_dist::ReadExReq            19878                       # Transaction distribution
system.tol2bus.trans_dist::ReadExResp           19877                       # Transaction distribution
system.tol2bus.trans_dist::ReadCleanReq           338                       # Transaction distribution
system.tol2bus.trans_dist::ReadSharedReq         5481                       # Transaction distribution
system.tol2bus.pkt_count_system.cpu.icache.mem_side::system.l2.cpu_side          890                       # Packet count per connected master and slave (bytes)
system.tol2bus.pkt_count_system.cpu.dcache.mem_side::system.l2.cpu_side        75051                       # Packet count per connected master and slave (bytes)
system.tol2bus.pkt_count::total                 75941                       # Packet count per connected master and slave (bytes)
system.tol2bus.pkt_size_system.cpu.icache.mem_side::system.l2.cpu_side        35328                       # Cumulative packet size per connected master and slave (bytes)
system.tol2bus.pkt_size_system.cpu.dcache.mem_side::system.l2.cpu_side      2874560                       # Cumulative packet size per connected master and slave (bytes)
system.tol2bus.pkt_size::total                2909888                       # Cumulative packet size per connected master and slave (bytes)
system.tol2bus.snoops                              89                       # Total snoops (count)
system.tol2bus.snoopTraffic                       832                       # Total snoop traffic (bytes)
system.tol2bus.snoop_fanout::samples            25786                       # Request fanout histogram
system.tol2bus.snoop_fanout::mean            0.002637                       # Request fanout histogram
system.tol2bus.snoop_fanout::stdev           0.051286                       # Request fanout histogram
system.tol2bus.snoop_fanout::underflows             0      0.00%      0.00% # Request fanout histogram
system.tol2bus.snoop_fanout::0                  25718     99.74%     99.74% # Request fanout histogram
system.tol2bus.snoop_fanout::1                     68      0.26%    100.00% # Request fanout histogram
system.tol2bus.snoop_fanout::2                      0      0.00%    100.00% # Request fanout histogram
system.tol2bus.snoop_fanout::3                      0      0.00%    100.00% # Request fanout histogram
system.tol2bus.snoop_fanout::4                      0      0.00%    100.00% # Request fanout histogram
system.tol2bus.snoop_fanout::overflows              0      0.00%    100.00% # Request fanout histogram
system.tol2bus.snoop_fanout::min_value              0                       # Request fanout histogram
system.tol2bus.snoop_fanout::max_value              1                       # Request fanout histogram
system.tol2bus.snoop_fanout::total              25786                       # Request fanout histogram
system.tol2bus.reqLayer0.occupancy           44889500                       # Layer occupancy (ticks)
system.tol2bus.reqLayer0.utilization              1.7                       # Layer utilization (%)
system.tol2bus.respLayer1.occupancy          38028000                       # Layer occupancy (ticks)
system.tol2bus.respLayer1.utilization             1.5                       # Layer utilization (%)
system.tol2bus.respLayer0.occupancy            504499                       # Layer occupancy (ticks)
system.tol2bus.respLayer0.utilization             0.0                       # Layer utilization (%)
system.voltage_domain.voltage                       1                       # Voltage in Volts
system.clk_domain.clock                          1000                       # Clock period in ticks
system.l2.pwrStateResidencyTicks::UNDEFINED 70892824338500                       # Cumulative time (in ticks) in various power states
system.l2.demand_hits::.switch_cpus.inst          203                       # number of demand (read+write) hits
system.l2.demand_hits::.switch_cpus.data        22464                       # number of demand (read+write) hits
system.l2.demand_hits::total                    22667                       # number of demand (read+write) hits
system.l2.overall_hits::.switch_cpus.inst          203                       # number of overall hits
system.l2.overall_hits::.switch_cpus.data        22464                       # number of overall hits
system.l2.overall_hits::total                   22667                       # number of overall hits
system.l2.demand_misses::.cpu.inst                  2                       # number of demand (read+write) misses
system.l2.demand_misses::.cpu.data                  6                       # number of demand (read+write) misses
system.l2.demand_misses::.switch_cpus.inst          133                       # number of demand (read+write) misses
system.l2.demand_misses::.switch_cpus.data         2889                       # number of demand (read+write) misses
system.l2.demand_misses::total                   3030                       # number of demand (read+write) misses
system.l2.overall_misses::.cpu.inst                 2                       # number of overall misses
system.l2.overall_misses::.cpu.data                 6                       # number of overall misses
system.l2.overall_misses::.switch_cpus.inst          133                       # number of overall misses
system.l2.overall_misses::.switch_cpus.data         2889                       # number of overall misses
system.l2.overall_misses::total                  3030                       # number of overall misses
system.l2.demand_miss_latency::.switch_cpus.inst     10547000                       # number of demand (read+write) miss cycles
system.l2.demand_miss_latency::.switch_cpus.data    231323500                       # number of demand (read+write) miss cycles
system.l2.demand_miss_latency::total        241870500                       # number of demand (read+write) miss cycles
system.l2.overall_miss_latency::.switch_cpus.inst     10547000                       # number of overall miss cycles
system.l2.overall_miss_latency::.switch_cpus.data    231323500                       # number of overall miss cycles
system.l2.overall_miss_latency::total       241870500                       # number of overall miss cycles
system.l2.demand_accesses::.cpu.inst                2                       # number of demand (read+write) accesses
system.l2.demand_accesses::.cpu.data                6                       # number of demand (read+write) accesses
system.l2.demand_accesses::.switch_cpus.inst          336                       # number of demand (read+write) accesses
system.l2.demand_accesses::.switch_cpus.data        25353                       # number of demand (read+write) accesses
system.l2.demand_accesses::total                25697                       # number of demand (read+write) accesses
system.l2.overall_accesses::.cpu.inst               2                       # number of overall (read+write) accesses
system.l2.overall_accesses::.cpu.data               6                       # number of overall (read+write) accesses
system.l2.overall_accesses::.switch_cpus.inst          336                       # number of overall (read+write) accesses
system.l2.overall_accesses::.switch_cpus.data        25353                       # number of overall (read+write) accesses
system.l2.overall_accesses::total               25697                       # number of overall (read+write) accesses
system.l2.demand_miss_rate::.cpu.inst               1                       # miss rate for demand accesses
system.l2.demand_miss_rate::.cpu.data               1                       # miss rate for demand accesses
system.l2.demand_miss_rate::.switch_cpus.inst     0.395833                       # miss rate for demand accesses
system.l2.demand_miss_rate::.switch_cpus.data     0.113951                       # miss rate for demand accesses
system.l2.demand_miss_rate::total            0.117913                       # miss rate for demand accesses
system.l2.overall_miss_rate::.cpu.inst              1                       # miss rate for overall accesses
system.l2.overall_miss_rate::.cpu.data              1                       # miss rate for overall accesses
system.l2.overall_miss_rate::.switch_cpus.inst     0.395833                       # miss rate for overall accesses
system.l2.overall_miss_rate::.switch_cpus.data     0.113951                       # miss rate for overall accesses
system.l2.overall_miss_rate::total           0.117913                       # miss rate for overall accesses
system.l2.demand_avg_miss_latency::.switch_cpus.inst 79300.751880                       # average overall miss latency
system.l2.demand_avg_miss_latency::.switch_cpus.data 80070.439598                       # average overall miss latency
system.l2.demand_avg_miss_latency::total 79825.247525                       # average overall miss latency
system.l2.overall_avg_miss_latency::.switch_cpus.inst 79300.751880                       # average overall miss latency
system.l2.overall_avg_miss_latency::.switch_cpus.data 80070.439598                       # average overall miss latency
system.l2.overall_avg_miss_latency::total 79825.247525                       # average overall miss latency
system.l2.blocked_cycles::no_mshrs                  0                       # number of cycles access was blocked
system.l2.blocked_cycles::no_targets                0                       # number of cycles access was blocked
system.l2.blocked::no_mshrs                         0                       # number of cycles access was blocked
system.l2.blocked::no_targets                       0                       # number of cycles access was blocked
system.l2.avg_blocked_cycles::no_mshrs            nan                       # average number of cycles each access was blocked
system.l2.avg_blocked_cycles::no_targets          nan                       # average number of cycles each access was blocked
system.l2.writebacks::.writebacks                  13                       # number of writebacks
system.l2.writebacks::total                        13                       # number of writebacks
system.l2.demand_mshr_misses::.switch_cpus.inst          133                       # number of demand (read+write) MSHR misses
system.l2.demand_mshr_misses::.switch_cpus.data         2889                       # number of demand (read+write) MSHR misses
system.l2.demand_mshr_misses::total              3022                       # number of demand (read+write) MSHR misses
system.l2.overall_mshr_misses::.switch_cpus.inst          133                       # number of overall MSHR misses
system.l2.overall_mshr_misses::.switch_cpus.data         2889                       # number of overall MSHR misses
system.l2.overall_mshr_misses::total             3022                       # number of overall MSHR misses
system.l2.demand_mshr_miss_latency::.switch_cpus.inst      9217000                       # number of demand (read+write) MSHR miss cycles
system.l2.demand_mshr_miss_latency::.switch_cpus.data    202433500                       # number of demand (read+write) MSHR miss cycles
system.l2.demand_mshr_miss_latency::total    211650500                       # number of demand (read+write) MSHR miss cycles
system.l2.overall_mshr_miss_latency::.switch_cpus.inst      9217000                       # number of overall MSHR miss cycles
system.l2.overall_mshr_miss_latency::.switch_cpus.data    202433500                       # number of overall MSHR miss cycles
system.l2.overall_mshr_miss_latency::total    211650500                       # number of overall MSHR miss cycles
system.l2.demand_mshr_miss_rate::.switch_cpus.inst     0.395833                       # mshr miss rate for demand accesses
system.l2.demand_mshr_miss_rate::.switch_cpus.data     0.113951                       # mshr miss rate for demand accesses
system.l2.demand_mshr_miss_rate::total       0.117601                       # mshr miss rate for demand accesses
system.l2.overall_mshr_miss_rate::.switch_cpus.inst     0.395833                       # mshr miss rate for overall accesses
system.l2.overall_mshr_miss_rate::.switch_cpus.data     0.113951                       # mshr miss rate for overall accesses
system.l2.overall_mshr_miss_rate::total      0.117601                       # mshr miss rate for overall accesses
system.l2.demand_avg_mshr_miss_latency::.switch_cpus.inst 69300.751880                       # average overall mshr miss latency
system.l2.demand_avg_mshr_miss_latency::.switch_cpus.data 70070.439598                       # average overall mshr miss latency
system.l2.demand_avg_mshr_miss_latency::total 70036.565189                       # average overall mshr miss latency
system.l2.overall_avg_mshr_miss_latency::.switch_cpus.inst 69300.751880                       # average overall mshr miss latency
system.l2.overall_avg_mshr_miss_latency::.switch_cpus.data 70070.439598                       # average overall mshr miss latency
system.l2.overall_avg_mshr_miss_latency::total 70036.565189                       # average overall mshr miss latency
system.l2.replacements                             89                       # number of replacements
system.l2.WritebackDirty_hits::.writebacks        19557                       # number of WritebackDirty hits
system.l2.WritebackDirty_hits::total            19557                       # number of WritebackDirty hits
system.l2.WritebackDirty_accesses::.writebacks        19557                       # number of WritebackDirty accesses(hits+misses)
system.l2.WritebackDirty_accesses::total        19557                       # number of WritebackDirty accesses(hits+misses)
system.l2.WritebackClean_hits::.writebacks          214                       # number of WritebackClean hits
system.l2.WritebackClean_hits::total              214                       # number of WritebackClean hits
system.l2.WritebackClean_accesses::.writebacks          214                       # number of WritebackClean accesses(hits+misses)
system.l2.WritebackClean_accesses::total          214                       # number of WritebackClean accesses(hits+misses)
system.l2.CleanEvict_mshr_misses::.writebacks            1                       # number of CleanEvict MSHR misses
system.l2.CleanEvict_mshr_misses::total             1                       # number of CleanEvict MSHR misses
system.l2.CleanEvict_mshr_miss_rate::.writebacks          inf                       # mshr miss rate for CleanEvict accesses
system.l2.CleanEvict_mshr_miss_rate::total          inf                       # mshr miss rate for CleanEvict accesses
system.l2.ReadExReq_hits::.switch_cpus.data        17551                       # number of ReadExReq hits
system.l2.ReadExReq_hits::total                 17551                       # number of ReadExReq hits
system.l2.ReadExReq_misses::.cpu.data               2                       # number of ReadExReq misses
system.l2.ReadExReq_misses::.switch_cpus.data         2325                       # number of ReadExReq misses
system.l2.ReadExReq_misses::total                2327                       # number of ReadExReq misses
system.l2.ReadExReq_miss_latency::.switch_cpus.data    183451000                       # number of ReadExReq miss cycles
system.l2.ReadExReq_miss_latency::total     183451000                       # number of ReadExReq miss cycles
system.l2.ReadExReq_accesses::.cpu.data             2                       # number of ReadExReq accesses(hits+misses)
system.l2.ReadExReq_accesses::.switch_cpus.data        19876                       # number of ReadExReq accesses(hits+misses)
system.l2.ReadExReq_accesses::total             19878                       # number of ReadExReq accesses(hits+misses)
system.l2.ReadExReq_miss_rate::.cpu.data            1                       # miss rate for ReadExReq accesses
system.l2.ReadExReq_miss_rate::.switch_cpus.data     0.116975                       # miss rate for ReadExReq accesses
system.l2.ReadExReq_miss_rate::total         0.117064                       # miss rate for ReadExReq accesses
system.l2.ReadExReq_avg_miss_latency::.switch_cpus.data 78903.655914                       # average ReadExReq miss latency
system.l2.ReadExReq_avg_miss_latency::total 78835.840138                       # average ReadExReq miss latency
system.l2.ReadExReq_mshr_misses::.switch_cpus.data         2325                       # number of ReadExReq MSHR misses
system.l2.ReadExReq_mshr_misses::total           2325                       # number of ReadExReq MSHR misses
system.l2.ReadExReq_mshr_miss_latency::.switch_cpus.data    160201000                       # number of ReadExReq MSHR miss cycles
system.l2.ReadExReq_mshr_miss_latency::total    160201000                       # number of ReadExReq MSHR miss cycles
system.l2.ReadExReq_mshr_miss_rate::.switch_cpus.data     0.116975                       # mshr miss rate for ReadExReq accesses
system.l2.ReadExReq_mshr_miss_rate::total     0.116963                       # mshr miss rate for ReadExReq accesses
system.l2.ReadExReq_avg_mshr_miss_latency::.switch_cpus.data 68903.655914                       # average ReadExReq mshr miss latency
system.l2.ReadExReq_avg_mshr_miss_latency::total 68903.655914                       # average ReadExReq mshr miss latency
system.l2.ReadCleanReq_hits::.switch_cpus.inst          203                       # number of ReadCleanReq hits
system.l2.ReadCleanReq_hits::total                203                       # number of ReadCleanReq hits
system.l2.ReadCleanReq_misses::.cpu.inst            2                       # number of ReadCleanReq misses
system.l2.ReadCleanReq_misses::.switch_cpus.inst          133                       # number of ReadCleanReq misses
system.l2.ReadCleanReq_misses::total              135                       # number of ReadCleanReq misses
system.l2.ReadCleanReq_miss_latency::.switch_cpus.inst     10547000                       # number of ReadCleanReq miss cycles
system.l2.ReadCleanReq_miss_latency::total     10547000                       # number of ReadCleanReq miss cycles
system.l2.ReadCleanReq_accesses::.cpu.inst            2                       # number of ReadCleanReq accesses(hits+misses)
system.l2.ReadCleanReq_accesses::.switch_cpus.inst          336                       # number of ReadCleanReq accesses(hits+misses)
system.l2.ReadCleanReq_accesses::total            338                       # number of ReadCleanReq accesses(hits+misses)
system.l2.ReadCleanReq_miss_rate::.cpu.inst            1                       # miss rate for ReadCleanReq accesses
system.l2.ReadCleanReq_miss_rate::.switch_cpus.inst     0.395833                       # miss rate for ReadCleanReq accesses
[...]
system.cpu.itb.walker.pwrStateResidencyTicks::UNDEFINED 70900526564500                       # Cumulative time (in ticks) in various power states
system.cpu.dtb_walker_cache.pwrStateResidencyTicks::UNDEFINED 70900526564500                       # Cumulative time (in ticks) in various power states
system.cpu.dtb_walker_cache.blocked_cycles::no_mshrs            0                       # number of cycles access was blocked
system.cpu.dtb_walker_cache.blocked_cycles::no_targets            0                       # number of cycles access was blocked
system.cpu.dtb_walker_cache.blocked::no_mshrs            0                       # number of cycles access was blocked
system.cpu.dtb_walker_cache.blocked::no_targets            0                       # number of cycles access was blocked
system.cpu.dtb_walker_cache.avg_blocked_cycles::no_mshrs          nan                       # average number of cycles each access was blocked
system.cpu.dtb_walker_cache.avg_blocked_cycles::no_targets          nan                       # average number of cycles each access was blocked
system.cpu.dtb_walker_cache.replacements            0                       # number of replacements
system.cpu.dtb_walker_cache.tags.pwrStateResidencyTicks::UNDEFINED 70900526564500                       # Cumulative time (in ticks) in various power states
system.cpu.dtb_walker_cache.tags.tagsinuse            0                       # Cycle average of tags in use
system.cpu.dtb_walker_cache.tags.total_refs            0                       # Total number of references to valid blocks.
system.cpu.dtb_walker_cache.tags.sampled_refs            0                       # Sample count of references to valid blocks.
system.cpu.dtb_walker_cache.tags.avg_refs          nan                       # Average number of references to valid blocks.
system.cpu.dtb_walker_cache.tags.warmup_cycle            0                       # Cycle when the warmup percentage was hit.
system.cpu.dtb_walker_cache.tags.tag_accesses            0                       # Number of tag accesses
system.cpu.dtb_walker_cache.tags.data_accesses            0                       # Number of data accesses
system.cpu.dcache.pwrStateResidencyTicks::UNDEFINED 70900526564500                       # Cumulative time (in ticks) in various power states
system.cpu.dcache.demand_hits::.cpu.data            1                       # number of demand (read+write) hits
system.cpu.dcache.demand_hits::.switch_cpus.data     18883230                       # number of demand (read+write) hits
system.cpu.dcache.demand_hits::total         18883231                       # number of demand (read+write) hits
system.cpu.dcache.overall_hits::.cpu.data            1                       # number of overall hits
system.cpu.dcache.overall_hits::.switch_cpus.data     18931759                       # number of overall hits
system.cpu.dcache.overall_hits::total        18931760                       # number of overall hits
system.cpu.dcache.demand_misses::.cpu.data            6                       # number of demand (read+write) misses
system.cpu.dcache.demand_misses::.switch_cpus.data       106295                       # number of demand (read+write) misses
system.cpu.dcache.demand_misses::total         106301                       # number of demand (read+write) misses
system.cpu.dcache.overall_misses::.cpu.data            6                       # number of overall misses
system.cpu.dcache.overall_misses::.switch_cpus.data       109112                       # number of overall misses
system.cpu.dcache.overall_misses::total        109118                       # number of overall misses
system.cpu.dcache.demand_miss_latency::.switch_cpus.data   1733066987                       # number of demand (read+write) miss cycles
system.cpu.dcache.demand_miss_latency::total   1733066987                       # number of demand (read+write) miss cycles
system.cpu.dcache.overall_miss_latency::.switch_cpus.data   1733066987                       # number of overall miss cycles
system.cpu.dcache.overall_miss_latency::total   1733066987                       # number of overall miss cycles
system.cpu.dcache.demand_accesses::.cpu.data            7                       # number of demand (read+write) accesses
system.cpu.dcache.demand_accesses::.switch_cpus.data     18989525                       # number of demand (read+write) accesses
system.cpu.dcache.demand_accesses::total     18989532                       # number of demand (read+write) accesses
system.cpu.dcache.overall_accesses::.cpu.data            7                       # number of overall (read+write) accesses
system.cpu.dcache.overall_accesses::.switch_cpus.data     19040871                       # number of overall (read+write) accesses
system.cpu.dcache.overall_accesses::total     19040878                       # number of overall (read+write) accesses
system.cpu.dcache.demand_miss_rate::.cpu.data     0.857143                       # miss rate for demand accesses
system.cpu.dcache.demand_miss_rate::.switch_cpus.data     0.005598                       # miss rate for demand accesses
system.cpu.dcache.demand_miss_rate::total     0.005598                       # miss rate for demand accesses
system.cpu.dcache.overall_miss_rate::.cpu.data     0.857143                       # miss rate for overall accesses
system.cpu.dcache.overall_miss_rate::.switch_cpus.data     0.005730                       # miss rate for overall accesses
system.cpu.dcache.overall_miss_rate::total     0.005731                       # miss rate for overall accesses
system.cpu.dcache.demand_avg_miss_latency::.switch_cpus.data 16304.313345                       # average overall miss latency
system.cpu.dcache.demand_avg_miss_latency::total 16303.393073                       # average overall miss latency
system.cpu.dcache.overall_avg_miss_latency::.switch_cpus.data 15883.376595                       # average overall miss latency
system.cpu.dcache.overall_avg_miss_latency::total 15882.503226                       # average overall miss latency
system.cpu.dcache.blocked_cycles::no_mshrs         6941                       # number of cycles access was blocked
system.cpu.dcache.blocked_cycles::no_targets          130                       # number of cycles access was blocked
system.cpu.dcache.blocked::no_mshrs               690                       # number of cycles access was blocked
system.cpu.dcache.blocked::no_targets               2                       # number of cycles access was blocked
system.cpu.dcache.avg_blocked_cycles::no_mshrs    10.059420                       # average number of cycles each access was blocked
system.cpu.dcache.avg_blocked_cycles::no_targets           65                       # average number of cycles each access was blocked
system.cpu.dcache.writebacks::.writebacks        85724                       # number of writebacks
system.cpu.dcache.writebacks::total             85724                       # number of writebacks
system.cpu.dcache.demand_mshr_hits::.switch_cpus.data         3397                       # number of demand (read+write) MSHR hits
system.cpu.dcache.demand_mshr_hits::total         3397                       # number of demand (read+write) MSHR hits
system.cpu.dcache.overall_mshr_hits::.switch_cpus.data         3397                       # number of overall MSHR hits
system.cpu.dcache.overall_mshr_hits::total         3397                       # number of overall MSHR hits
system.cpu.dcache.demand_mshr_misses::.switch_cpus.data       102898                       # number of demand (read+write) MSHR misses
system.cpu.dcache.demand_mshr_misses::total       102898                       # number of demand (read+write) MSHR misses
system.cpu.dcache.overall_mshr_misses::.switch_cpus.data       104971                       # number of overall MSHR misses
system.cpu.dcache.overall_mshr_misses::total       104971                       # number of overall MSHR misses
system.cpu.dcache.demand_mshr_miss_latency::.switch_cpus.data   1577715988                       # number of demand (read+write) MSHR miss cycles
system.cpu.dcache.demand_mshr_miss_latency::total   1577715988                       # number of demand (read+write) MSHR miss cycles
system.cpu.dcache.overall_mshr_miss_latency::.switch_cpus.data   1623652488                       # number of overall MSHR miss cycles
system.cpu.dcache.overall_mshr_miss_latency::total   1623652488                       # number of overall MSHR miss cycles
system.cpu.dcache.demand_mshr_miss_rate::.switch_cpus.data     0.005419                       # mshr miss rate for demand accesses
system.cpu.dcache.demand_mshr_miss_rate::total     0.005419                       # mshr miss rate for demand accesses
system.cpu.dcache.overall_mshr_miss_rate::.switch_cpus.data     0.005513                       # mshr miss rate for overall accesses
system.cpu.dcache.overall_mshr_miss_rate::total     0.005513                       # mshr miss rate for overall accesses
system.cpu.dcache.demand_avg_mshr_miss_latency::.switch_cpus.data 15332.814904                       # average overall mshr miss latency
system.cpu.dcache.demand_avg_mshr_miss_latency::total 15332.814904                       # average overall mshr miss latency
system.cpu.dcache.overall_avg_mshr_miss_latency::.switch_cpus.data 15467.629040                       # average overall mshr miss latency
system.cpu.dcache.overall_avg_mshr_miss_latency::total 15467.629040                       # average overall mshr miss latency
system.cpu.dcache.replacements                 103953                       # number of replacements
system.cpu.dcache.ReadReq_hits::.cpu.data            1                       # number of ReadReq hits
system.cpu.dcache.ReadReq_hits::.switch_cpus.data     13351421                       # number of ReadReq hits
system.cpu.dcache.ReadReq_hits::total        13351422                       # number of ReadReq hits
system.cpu.dcache.ReadReq_misses::.cpu.data            4                       # number of ReadReq misses
system.cpu.dcache.ReadReq_misses::.switch_cpus.data        24964                       # number of ReadReq misses
system.cpu.dcache.ReadReq_misses::total         24968                       # number of ReadReq misses
system.cpu.dcache.ReadReq_miss_latency::.switch_cpus.data    390048500                       # number of ReadReq miss cycles
system.cpu.dcache.ReadReq_miss_latency::total    390048500                       # number of ReadReq miss cycles
system.cpu.dcache.ReadReq_accesses::.cpu.data            5                       # number of ReadReq accesses(hits+misses)
system.cpu.dcache.ReadReq_accesses::.switch_cpus.data     13376385                       # number of ReadReq accesses(hits+misses)
system.cpu.dcache.ReadReq_accesses::total     13376390                       # number of ReadReq accesses(hits+misses)
system.cpu.dcache.ReadReq_miss_rate::.cpu.data     0.800000                       # miss rate for ReadReq accesses
system.cpu.dcache.ReadReq_miss_rate::.switch_cpus.data     0.001866                       # miss rate for ReadReq accesses
system.cpu.dcache.ReadReq_miss_rate::total     0.001867                       # miss rate for ReadReq accesses
system.cpu.dcache.ReadReq_avg_miss_latency::.switch_cpus.data 15624.439192                       # average ReadReq miss latency
system.cpu.dcache.ReadReq_avg_miss_latency::total 15621.936078                       # average ReadReq miss latency
system.cpu.dcache.ReadReq_mshr_hits::.switch_cpus.data         3373                       # number of ReadReq MSHR hits
system.cpu.dcache.ReadReq_mshr_hits::total         3373                       # number of ReadReq MSHR hits
system.cpu.dcache.ReadReq_mshr_misses::.switch_cpus.data        21591                       # number of ReadReq MSHR misses
system.cpu.dcache.ReadReq_mshr_misses::total        21591                       # number of ReadReq MSHR misses
system.cpu.dcache.ReadReq_mshr_miss_latency::.switch_cpus.data    316419500                       # number of ReadReq MSHR miss cycles
system.cpu.dcache.ReadReq_mshr_miss_latency::total    316419500                       # number of ReadReq MSHR miss cycles
system.cpu.dcache.ReadReq_mshr_miss_rate::.switch_cpus.data     0.001614                       # mshr miss rate for ReadReq accesses
system.cpu.dcache.ReadReq_mshr_miss_rate::total     0.001614                       # mshr miss rate for ReadReq accesses
system.cpu.dcache.ReadReq_avg_mshr_miss_latency::.switch_cpus.data 14655.157241                       # average ReadReq mshr miss latency
system.cpu.dcache.ReadReq_avg_mshr_miss_latency::total 14655.157241                       # average ReadReq mshr miss latency
system.cpu.dcache.WriteReq_hits::.switch_cpus.data      5531809                       # number of WriteReq hits
system.cpu.dcache.WriteReq_hits::total        5531809                       # number of WriteReq hits
system.cpu.dcache.WriteReq_misses::.cpu.data            2                       # number of WriteReq misses
system.cpu.dcache.WriteReq_misses::.switch_cpus.data        81331                       # number of WriteReq misses
system.cpu.dcache.WriteReq_misses::total        81333                       # number of WriteReq misses
system.cpu.dcache.WriteReq_miss_latency::.switch_cpus.data   1343018487                       # number of WriteReq miss cycles
system.cpu.dcache.WriteReq_miss_latency::total   1343018487                       # number of WriteReq miss cycles
system.cpu.dcache.WriteReq_accesses::.cpu.data            2                       # number of WriteReq accesses(hits+misses)
system.cpu.dcache.WriteReq_accesses::.switch_cpus.data      5613140                       # number of WriteReq accesses(hits+misses)
system.cpu.dcache.WriteReq_accesses::total      5613142                       # number of WriteReq accesses(hits+misses)
system.cpu.dcache.WriteReq_miss_rate::.cpu.data            1                       # miss rate for WriteReq accesses
system.cpu.dcache.WriteReq_miss_rate::.switch_cpus.data     0.014489                       # miss rate for WriteReq accesses
system.cpu.dcache.WriteReq_miss_rate::total     0.014490                       # miss rate for WriteReq accesses
system.cpu.dcache.WriteReq_avg_miss_latency::.switch_cpus.data 16512.996115                       # average WriteReq miss latency
system.cpu.dcache.WriteReq_avg_miss_latency::total 16512.590056                       # average WriteReq miss latency
system.cpu.dcache.WriteReq_mshr_hits::.switch_cpus.data           24                       # number of WriteReq MSHR hits
system.cpu.dcache.WriteReq_mshr_hits::total           24                       # number of WriteReq MSHR hits
system.cpu.dcache.WriteReq_mshr_misses::.switch_cpus.data        81307                       # number of WriteReq MSHR misses
system.cpu.dcache.WriteReq_mshr_misses::total        81307                       # number of WriteReq MSHR misses
system.cpu.dcache.WriteReq_mshr_miss_latency::.switch_cpus.data   1261296488                       # number of WriteReq MSHR miss cycles
system.cpu.dcache.WriteReq_mshr_miss_latency::total   1261296488                       # number of WriteReq MSHR miss cycles
system.cpu.dcache.WriteReq_mshr_miss_rate::.switch_cpus.data     0.014485                       # mshr miss rate for WriteReq accesses
system.cpu.dcache.WriteReq_mshr_miss_rate::total     0.014485                       # mshr miss rate for WriteReq accesses
system.cpu.dcache.WriteReq_avg_mshr_miss_latency::.switch_cpus.data 15512.766281                       # average WriteReq mshr miss latency
system.cpu.dcache.WriteReq_avg_mshr_miss_latency::total 15512.766281                       # average WriteReq mshr miss latency
system.cpu.dcache.SoftPFReq_hits::.switch_cpus.data        48529                       # number of SoftPFReq hits
system.cpu.dcache.SoftPFReq_hits::total         48529                       # number of SoftPFReq hits
system.cpu.dcache.SoftPFReq_misses::.switch_cpus.data         2817                       # number of SoftPFReq misses
system.cpu.dcache.SoftPFReq_misses::total         2817                       # number of SoftPFReq misses
system.cpu.dcache.SoftPFReq_accesses::.switch_cpus.data        51346                       # number of SoftPFReq accesses(hits+misses)
system.cpu.dcache.SoftPFReq_accesses::total        51346                       # number of SoftPFReq accesses(hits+misses)
system.cpu.dcache.SoftPFReq_miss_rate::.switch_cpus.data     0.054863                       # miss rate for SoftPFReq accesses
system.cpu.dcache.SoftPFReq_miss_rate::total     0.054863                       # miss rate for SoftPFReq accesses
system.cpu.dcache.SoftPFReq_mshr_misses::.switch_cpus.data         2073                       # number of SoftPFReq MSHR misses
system.cpu.dcache.SoftPFReq_mshr_misses::total         2073                       # number of SoftPFReq MSHR misses
system.cpu.dcache.SoftPFReq_mshr_miss_latency::.switch_cpus.data     45936500                       # number of SoftPFReq MSHR miss cycles
system.cpu.dcache.SoftPFReq_mshr_miss_latency::total     45936500                       # number of SoftPFReq MSHR miss cycles
system.cpu.dcache.SoftPFReq_mshr_miss_rate::.switch_cpus.data     0.040373                       # mshr miss rate for SoftPFReq accesses
system.cpu.dcache.SoftPFReq_mshr_miss_rate::total     0.040373                       # mshr miss rate for SoftPFReq accesses
system.cpu.dcache.SoftPFReq_avg_mshr_miss_latency::.switch_cpus.data 22159.430777                       # average SoftPFReq mshr miss latency
system.cpu.dcache.SoftPFReq_avg_mshr_miss_latency::total 22159.430777                       # average SoftPFReq mshr miss latency
system.cpu.dcache.tags.pwrStateResidencyTicks::UNDEFINED 70900526564500                       # Cumulative time (in ticks) in various power states
system.cpu.dcache.tags.tagsinuse             0.147825                       # Cycle average of tags in use
system.cpu.dcache.tags.total_refs            19036737                       # Total number of references to valid blocks.
system.cpu.dcache.tags.sampled_refs            104977                       # Sample count of references to valid blocks.
system.cpu.dcache.tags.avg_refs            181.341980                       # Average number of references to valid blocks.
system.cpu.dcache.tags.warmup_cycle      70890209278500                       # Cycle when the warmup percentage was hit.
system.cpu.dcache.tags.occ_blocks::.cpu.data     0.000390                       # Average occupied blocks per requestor
system.cpu.dcache.tags.occ_blocks::.switch_cpus.data     0.147435                       # Average occupied blocks per requestor
system.cpu.dcache.tags.occ_percent::.cpu.data     0.000000                       # Average percentage of cache occupancy
system.cpu.dcache.tags.occ_percent::.switch_cpus.data     0.000144                       # Average percentage of cache occupancy
system.cpu.dcache.tags.occ_percent::total     0.000144                       # Average percentage of cache occupancy
system.cpu.dcache.tags.occ_task_id_blocks::1024         1024                       # Occupied blocks per task id
system.cpu.dcache.tags.age_task_id_blocks_1024::0           16                       # Occupied blocks per task id
system.cpu.dcache.tags.age_task_id_blocks_1024::1          525                       # Occupied blocks per task id
system.cpu.dcache.tags.age_task_id_blocks_1024::2          483                       # Occupied blocks per task id
system.cpu.dcache.tags.occ_task_id_percent::1024            1                       # Percentage of cache occupancy per task id
system.cpu.dcache.tags.tag_accesses          38186733                       # Number of tag accesses
system.cpu.dcache.tags.data_accesses         38186733                       # Number of data accesses

---------- End Simulation Statistics   ----------
