
---------- Begin Simulation Statistics ----------
final_tick                               926048071129000                       # Number of ticks from beginning of simulation (restored from checkpoints and never reset)
host_inst_rate                                  36091                       # Simulator instruction rate (inst/s)
host_mem_usage                                 830000                       # Number of bytes of host memory used
host_op_rate                                    60723                       # Simulator op (including micro ops) rate (op/s)
host_seconds                                   277.08                       # Real time elapsed on the host
host_tick_rate                               30561422                       # Simulator tick rate (ticks/s)
sim_freq                                 1000000000000                       # Frequency of simulated ticks
sim_insts                                    10000009                       # Number of instructions simulated
sim_ops                                      16825012                       # Number of ops (including micro ops) simulated
sim_seconds                                  0.008468                       # Number of seconds simulated
sim_ticks                                  8467846500                       # Number of ticks simulated
system.cpu.Branches                                 3                       # Number of branches fetched
system.cpu.committedInsts                           9                       # Number of instructions committed
system.cpu.committedOps                            18                       # Number of ops (including micro ops) committed
system.cpu.dtb.rdAccesses                           2                       # TLB accesses on read requests
system.cpu.dtb.rdMisses                             0                       # TLB misses on read requests
system.cpu.dtb.wrAccesses                           0                       # TLB accesses on write requests
system.cpu.dtb.wrMisses                             0                       # TLB misses on write requests
system.cpu.idle_fraction                            0                       # Percentage of idle cycles
system.cpu.itb.rdAccesses                           0                       # TLB accesses on read requests
system.cpu.itb.rdMisses                             0                       # TLB misses on read requests
system.cpu.itb.wrAccesses                          11                       # TLB accesses on write requests
system.cpu.itb.wrMisses                             0                       # TLB misses on write requests
system.cpu.not_idle_fraction                        1                       # Percentage of non-idle cycles
system.cpu.numCycles                               20                       # number of cpu cycles simulated
system.cpu.numWorkItemsCompleted                    0                       # number of work items this cpu completed
system.cpu.numWorkItemsStarted                      0                       # number of work items this cpu started
system.cpu.num_busy_cycles                         20                       # Number of busy cycles
system.cpu.num_cc_register_reads                   15                       # number of times the CC registers were read
system.cpu.num_cc_register_writes                   8                       # number of times the CC registers were written
system.cpu.num_conditional_control_insts            3                       # number of instructions that are conditional controls
system.cpu.num_fp_alu_accesses                      0                       # Number of float alu accesses
system.cpu.num_fp_insts                             0                       # number of float instructions
system.cpu.num_fp_register_reads                    0                       # number of times the floating registers were read
system.cpu.num_fp_register_writes                   0                       # number of times the floating registers were written
system.cpu.num_func_calls                           0                       # number of times a function call or return occured
system.cpu.num_idle_cycles                          0                       # Number of idle cycles
system.cpu.num_int_alu_accesses                    18                       # Number of integer alu accesses
system.cpu.num_int_insts                           18                       # number of integer instructions
system.cpu.num_int_register_reads                  29                       # number of times the integer registers were read
system.cpu.num_int_register_writes                 15                       # number of times the integer registers were written
system.cpu.num_load_insts                           2                       # Number of load instructions
system.cpu.num_mem_refs                             2                       # number of memory refs
system.cpu.num_store_insts                          0                       # Number of store instructions
system.cpu.num_vec_alu_accesses                     0                       # Number of vector alu accesses
system.cpu.num_vec_insts                            0                       # number of vector instructions
system.cpu.num_vec_register_reads                   0                       # number of times the vector registers were read
system.cpu.num_vec_register_writes                  0                       # number of times the vector registers were written
system.cpu.op_class::No_OpClass                     0      0.00%      0.00% # Class of executed instruction
system.cpu.op_class::IntAlu                        16     88.89%     88.89% # Class of executed instruction
system.cpu.op_class::IntMult                        0      0.00%     88.89% # Class of executed instruction
system.cpu.op_class::IntDiv                         0      0.00%     88.89% # Class of executed instruction
system.cpu.op_class::FloatAdd                       0      0.00%     88.89% # Class of executed instruction
system.cpu.op_class::FloatCmp                       0      0.00%     88.89% # Class of executed instruction
system.cpu.op_class::FloatCvt                       0      0.00%     88.89% # Class of executed instruction
system.cpu.op_class::FloatMult                      0      0.00%     88.89% # Class of executed instruction
system.cpu.op_class::FloatMultAcc                   0      0.00%     88.89% # Class of executed instruction
system.cpu.op_class::FloatDiv                       0      0.00%     88.89% # Class of executed instruction
system.cpu.op_class::FloatMisc                      0      0.00%     88.89% # Class of executed instruction
system.cpu.op_class::FloatSqrt                      0      0.00%     88.89% # Class of executed instruction
system.cpu.op_class::SimdAdd                        0      0.00%     88.89% # Class of executed instruction
system.cpu.op_class::SimdAddAcc                     0      0.00%     88.89% # Class of executed instruction
system.cpu.op_class::SimdAlu                        0      0.00%     88.89% # Class of executed instruction
system.cpu.op_class::SimdCmp                        0      0.00%     88.89% # Class of executed instruction
system.cpu.op_class::SimdCvt                        0      0.00%     88.89% # Class of executed instruction
system.cpu.op_class::SimdMisc                       0      0.00%     88.89% # Class of executed instruction
system.cpu.op_class::SimdMult                       0      0.00%     88.89% # Class of executed instruction
system.cpu.op_class::SimdMultAcc                    0      0.00%     88.89% # Class of executed instruction
system.cpu.op_class::SimdShift                      0      0.00%     88.89% # Class of executed instruction
system.cpu.op_class::SimdShiftAcc                   0      0.00%     88.89% # Class of executed instruction
system.cpu.op_class::SimdDiv                        0      0.00%     88.89% # Class of executed instruction
system.cpu.op_class::SimdSqrt                       0      0.00%     88.89% # Class of executed instruction
system.cpu.op_class::SimdFloatAdd                   0      0.00%     88.89% # Class of executed instruction
system.cpu.op_class::SimdFloatAlu                   0      0.00%     88.89% # Class of executed instruction
system.cpu.op_class::SimdFloatCmp                   0      0.00%     88.89% # Class of executed instruction
system.cpu.op_class::SimdFloatCvt                   0      0.00%     88.89% # Class of executed instruction
system.cpu.op_class::SimdFloatDiv                   0      0.00%     88.89% # Class of executed instruction
system.cpu.op_class::SimdFloatMisc                  0      0.00%     88.89% # Class of executed instruction
system.cpu.op_class::SimdFloatMult                  0      0.00%     88.89% # Class of executed instruction
system.cpu.op_class::SimdFloatMultAcc               0      0.00%     88.89% # Class of executed instruction
system.cpu.op_class::SimdFloatSqrt                  0      0.00%     88.89% # Class of executed instruction
system.cpu.op_class::SimdReduceAdd                  0      0.00%     88.89% # Class of executed instruction
system.cpu.op_class::SimdReduceAlu                  0      0.00%     88.89% # Class of executed instruction
system.cpu.op_class::SimdReduceCmp                  0      0.00%     88.89% # Class of executed instruction
system.cpu.op_class::SimdFloatReduceAdd             0      0.00%     88.89% # Class of executed instruction
system.cpu.op_class::SimdFloatReduceCmp             0      0.00%     88.89% # Class of executed instruction
system.cpu.op_class::SimdAes                        0      0.00%     88.89% # Class of executed instruction
system.cpu.op_class::SimdAesMix                     0      0.00%     88.89% # Class of executed instruction
system.cpu.op_class::SimdSha1Hash                   0      0.00%     88.89% # Class of executed instruction
system.cpu.op_class::SimdSha1Hash2                  0      0.00%     88.89% # Class of executed instruction
system.cpu.op_class::SimdSha256Hash                 0      0.00%     88.89% # Class of executed instruction
system.cpu.op_class::SimdSha256Hash2                0      0.00%     88.89% # Class of executed instruction
system.cpu.op_class::SimdShaSigma2                  0      0.00%     88.89% # Class of executed instruction
system.cpu.op_class::SimdShaSigma3                  0      0.00%     88.89% # Class of executed instruction
system.cpu.op_class::SimdPredAlu                    0      0.00%     88.89% # Class of executed instruction
system.cpu.op_class::MemRead                        2     11.11%    100.00% # Class of executed instruction
system.cpu.op_class::MemWrite                       0      0.00%    100.00% # Class of executed instruction
system.cpu.op_class::FloatMemRead                   0      0.00%    100.00% # Class of executed instruction
system.cpu.op_class::FloatMemWrite                  0      0.00%    100.00% # Class of executed instruction
system.cpu.op_class::IprAccess                      0      0.00%    100.00% # Class of executed instruction
system.cpu.op_class::InstPrefetch                   0      0.00%    100.00% # Class of executed instruction
system.cpu.op_class::total                         18                       # Class of executed instruction
system.cpu.workload.numSyscalls                     0                       # Number of system calls
system.l2.prefetcher.num_hwpf_issued             2348                       # number of hwpf issued
system.l2.prefetcher.pfBufferHit                    0                       # number of redundant prefetches already in prefetch queue
system.l2.prefetcher.pfIdentified                2348                       # number of prefetch candidates identified
system.l2.prefetcher.pfInCache                      0                       # number of redundant prefetches already in cache/mshr dropped
system.l2.prefetcher.pfRemovedFull                  0                       # number of prefetches dropped due to prefetch queue size
system.l2.prefetcher.pfSpanPage                   112                       # number of prefetches that crossed the page
system.membus.snoop_filter.hit_multi_requests            0                       # Number of requests hitting in the snoop filter with multiple (>1) holders of the requested data.
system.membus.snoop_filter.hit_multi_snoops            0                       # Number of snoops hitting in the snoop filter with multiple (>1) holders of the requested data.
system.membus.snoop_filter.hit_single_requests        86325                       # Number of requests hitting in the snoop filter with a single holder of the requested data.
system.membus.snoop_filter.hit_single_snoops            0                       # Number of snoops hitting in the snoop filter with a single holder of the requested data.
system.membus.snoop_filter.tot_requests        176801                       # Total number of requests made to the snoop filter.
system.membus.snoop_filter.tot_snoops               0                       # Total number of snoops made to the snoop filter.
system.switch_cpus.branchPred.BTBCorrect            0                       # Number of correct BTB predictions (this stat may not work properly.
system.switch_cpus.branchPred.BTBHitPct      0.000000                       # BTB Hit Percentage
system.switch_cpus.branchPred.BTBHits               0                       # Number of BTB hits
system.switch_cpus.branchPred.BTBLookups      4799944                       # Number of BTB lookups
system.switch_cpus.branchPred.RASInCorrect            0                       # Number of incorrect RAS predictions.
system.switch_cpus.branchPred.condIncorrect       561055                       # Number of conditional branches incorrect
system.switch_cpus.branchPred.condPredicted      5881262                       # Number of conditional branches predicted
system.switch_cpus.branchPred.indirectHits      2724070                       # Number of indirect target hits.
system.switch_cpus.branchPred.indirectLookups      4799944                       # Number of indirect predictor lookups.
system.switch_cpus.branchPred.indirectMisses      2075874                       # Number of indirect misses.
system.switch_cpus.branchPred.lookups         5904532                       # Number of BP lookups
system.switch_cpus.branchPred.usedRAS               1                       # Number of times the RAS was used to get a target.
system.switch_cpus.branchPredindirectMispredicted       268426                       # Number of mispredicted indirect branches.
system.switch_cpus.cc_regfile_reads          15795441                       # number of cc regfile reads
system.switch_cpus.cc_regfile_writes         11750268                       # number of cc regfile writes
system.switch_cpus.commit.amos                      0                       # Number of atomic instructions committed
system.switch_cpus.commit.branchMispredicts       561055                       # The number of times a branch was mispredicted
system.switch_cpus.commit.branches            2315914                       # Number of branches committed
system.switch_cpus.commit.bw_lim_events        976429                       # number cycles where commit BW limit reached
system.switch_cpus.commit.commitSquashedInsts     18491690                       # The number of squashed insts skipped by commit
system.switch_cpus.commit.committedInsts     10000000                       # Number of instructions committed
system.switch_cpus.commit.committedOps       16824994                       # Number of ops (including micro ops) committed
system.switch_cpus.commit.committed_per_cycle::samples     14134495                       # Number of insts commited each cycle
system.switch_cpus.commit.committed_per_cycle::mean     1.190350                       # Number of insts commited each cycle
system.switch_cpus.commit.committed_per_cycle::stdev     2.326197                       # Number of insts commited each cycle
system.switch_cpus.commit.committed_per_cycle::underflows            0      0.00%      0.00% # Number of insts commited each cycle
system.switch_cpus.commit.committed_per_cycle::0      9707296     68.68%     68.68% # Number of insts commited each cycle
system.switch_cpus.commit.committed_per_cycle::1      1235852      8.74%     77.42% # Number of insts commited each cycle
system.switch_cpus.commit.committed_per_cycle::2       815358      5.77%     83.19% # Number of insts commited each cycle
system.switch_cpus.commit.committed_per_cycle::3       514914      3.64%     86.83% # Number of insts commited each cycle
system.switch_cpus.commit.committed_per_cycle::4       260507      1.84%     88.68% # Number of insts commited each cycle
system.switch_cpus.commit.committed_per_cycle::5       325973      2.31%     90.98% # Number of insts commited each cycle
system.switch_cpus.commit.committed_per_cycle::6       156803      1.11%     92.09% # Number of insts commited each cycle
system.switch_cpus.commit.committed_per_cycle::7       141363      1.00%     93.09% # Number of insts commited each cycle
system.switch_cpus.commit.committed_per_cycle::8       976429      6.91%    100.00% # Number of insts commited each cycle
system.switch_cpus.commit.committed_per_cycle::overflows            0      0.00%    100.00% # Number of insts commited each cycle
system.switch_cpus.commit.committed_per_cycle::min_value            0                       # Number of insts commited each cycle
system.switch_cpus.commit.committed_per_cycle::max_value            8                       # Number of insts commited each cycle
system.switch_cpus.commit.committed_per_cycle::total     14134495                       # Number of insts commited each cycle
system.switch_cpus.commit.fp_insts              36688                       # Number of committed floating point instructions.
system.switch_cpus.commit.function_calls            0                       # Number of function calls committed.
system.switch_cpus.commit.int_insts          16806537                       # Number of committed integer instructions.
system.switch_cpus.commit.loads               1871375                       # Number of loads committed
system.switch_cpus.commit.membars                   0                       # Number of memory barriers committed
system.switch_cpus.commit.op_class_0::No_OpClass        18457      0.11%      0.11% # Class of committed instruction
system.switch_cpus.commit.op_class_0::IntAlu     14350129     85.29%     85.40% # Class of committed instruction
system.switch_cpus.commit.op_class_0::IntMult        10952      0.07%     85.47% # Class of committed instruction
system.switch_cpus.commit.op_class_0::IntDiv            0      0.00%     85.47% # Class of committed instruction
system.switch_cpus.commit.op_class_0::FloatAdd            0      0.00%     85.47% # Class of committed instruction
system.switch_cpus.commit.op_class_0::FloatCmp            0      0.00%     85.47% # Class of committed instruction
system.switch_cpus.commit.op_class_0::FloatCvt            0      0.00%     85.47% # Class of committed instruction
system.switch_cpus.commit.op_class_0::FloatMult            0      0.00%     85.47% # Class of committed instruction
system.switch_cpus.commit.op_class_0::FloatMultAcc            0      0.00%     85.47% # Class of committed instruction
system.switch_cpus.commit.op_class_0::FloatDiv            0      0.00%     85.47% # Class of committed instruction
system.switch_cpus.commit.op_class_0::FloatMisc            0      0.00%     85.47% # Class of committed instruction
system.switch_cpus.commit.op_class_0::FloatSqrt            0      0.00%     85.47% # Class of committed instruction
system.switch_cpus.commit.op_class_0::SimdAdd            0      0.00%     85.47% # Class of committed instruction
system.switch_cpus.commit.op_class_0::SimdAddAcc            0      0.00%     85.47% # Class of committed instruction
system.switch_cpus.commit.op_class_0::SimdAlu            0      0.00%     85.47% # Class of committed instruction
system.switch_cpus.commit.op_class_0::SimdCmp            0      0.00%     85.47% # Class of committed instruction
system.switch_cpus.commit.op_class_0::SimdCvt            0      0.00%     85.47% # Class of committed instruction
system.switch_cpus.commit.op_class_0::SimdMisc            0      0.00%     85.47% # Class of committed instruction
system.switch_cpus.commit.op_class_0::SimdMult            0      0.00%     85.47% # Class of committed instruction
system.switch_cpus.commit.op_class_0::SimdMultAcc            0      0.00%     85.47% # Class of committed instruction
system.switch_cpus.commit.op_class_0::SimdShift            0      0.00%     85.47% # Class of committed instruction
system.switch_cpus.commit.op_class_0::SimdShiftAcc            0      0.00%     85.47% # Class of committed instruction
system.switch_cpus.commit.op_class_0::SimdDiv            0      0.00%     85.47% # Class of committed instruction
system.switch_cpus.commit.op_class_0::SimdSqrt            0      0.00%     85.47% # Class of committed instruction
system.switch_cpus.commit.op_class_0::SimdFloatAdd            0      0.00%     85.47% # Class of committed instruction
system.switch_cpus.commit.op_class_0::SimdFloatAlu            0      0.00%     85.47% # Class of committed instruction
system.switch_cpus.commit.op_class_0::SimdFloatCmp            0      0.00%     85.47% # Class of committed instruction
system.switch_cpus.commit.op_class_0::SimdFloatCvt            0      0.00%     85.47% # Class of committed instruction
system.switch_cpus.commit.op_class_0::SimdFloatDiv            0      0.00%     85.47% # Class of committed instruction
system.switch_cpus.commit.op_class_0::SimdFloatMisc            0      0.00%     85.47% # Class of committed instruction
system.switch_cpus.commit.op_class_0::SimdFloatMult            0      0.00%     85.47% # Class of committed instruction
system.switch_cpus.commit.op_class_0::SimdFloatMultAcc            0      0.00%     85.47% # Class of committed instruction
system.switch_cpus.commit.op_class_0::SimdFloatSqrt            0      0.00%     85.47% # Class of committed instruction
system.switch_cpus.commit.op_class_0::SimdReduceAdd            0      0.00%     85.47% # Class of committed instruction
system.switch_cpus.commit.op_class_0::SimdReduceAlu            0      0.00%     85.47% # Class of committed instruction
system.switch_cpus.commit.op_class_0::SimdReduceCmp            0      0.00%     85.47% # Class of committed instruction
system.switch_cpus.commit.op_class_0::SimdFloatReduceAdd            0      0.00%     85.47% # Class of committed instruction
system.switch_cpus.commit.op_class_0::SimdFloatReduceCmp            0      0.00%     85.47% # Class of committed instruction
system.switch_cpus.commit.op_class_0::SimdAes            0      0.00%     85.47% # Class of committed instruction
system.switch_cpus.commit.op_class_0::SimdAesMix            0      0.00%     85.47% # Class of committed instruction
system.switch_cpus.commit.op_class_0::SimdSha1Hash            0      0.00%     85.47% # Class of committed instruction
system.switch_cpus.commit.op_class_0::SimdSha1Hash2            0      0.00%     85.47% # Class of committed instruction
system.switch_cpus.commit.op_class_0::SimdSha256Hash            0      0.00%     85.47% # Class of committed instruction
system.switch_cpus.commit.op_class_0::SimdSha256Hash2            0      0.00%     85.47% # Class of committed instruction
system.switch_cpus.commit.op_class_0::SimdShaSigma2            0      0.00%     85.47% # Class of committed instruction
system.switch_cpus.commit.op_class_0::SimdShaSigma3            0      0.00%     85.47% # Class of committed instruction
system.switch_cpus.commit.op_class_0::SimdPredAlu            0      0.00%     85.47% # Class of committed instruction
system.switch_cpus.commit.op_class_0::MemRead      1853031     11.01%     96.48% # Class of committed instruction
system.switch_cpus.commit.op_class_0::MemWrite       555737      3.30%     99.78% # Class of committed instruction
system.switch_cpus.commit.op_class_0::FloatMemRead        18344      0.11%     99.89% # Class of committed instruction
system.switch_cpus.commit.op_class_0::FloatMemWrite        18344      0.11%    100.00% # Class of committed instruction
system.switch_cpus.commit.op_class_0::IprAccess            0      0.00%    100.00% # Class of committed instruction
system.switch_cpus.commit.op_class_0::InstPrefetch            0      0.00%    100.00% # Class of committed instruction
system.switch_cpus.commit.op_class_0::total     16824994                       # Class of committed instruction
system.switch_cpus.commit.refs                2445456                       # Number of memory references committed
system.switch_cpus.commit.swp_count                 0                       # Number of s/w prefetches committed
system.switch_cpus.commit.vec_insts                 0                       # Number of committed Vector instructions.
system.switch_cpus.committedInsts            10000000                       # Number of Instructions Simulated
system.switch_cpus.committedOps              16824994                       # Number of Ops (including micro ops) Simulated
system.switch_cpus.cpi                       1.693567                       # CPI: Cycles Per Instruction
system.switch_cpus.cpi_total                 1.693567                       # CPI: Total CPI of All Threads
system.switch_cpus.decode.BlockedCycles       5566433                       # Number of cycles decode is blocked
system.switch_cpus.decode.DecodedInsts       42496248                       # Number of instructions handled by decode
system.switch_cpus.decode.IdleCycles          3891945                       # Number of cycles decode is idle
system.switch_cpus.decode.RunCycles           6366263                       # Number of cycles decode is running
system.switch_cpus.decode.SquashCycles         562201                       # Number of cycles decode is squashing
system.switch_cpus.decode.UnblockCycles        546023                       # Number of cycles decode is unblocking
system.switch_cpus.dtb.rdAccesses             3178203                       # TLB accesses on read requests
system.switch_cpus.dtb.rdMisses                370429                       # TLB misses on read requests
system.switch_cpus.dtb.wrAccesses             1021020                       # TLB accesses on write requests
system.switch_cpus.dtb.wrMisses                  3324                       # TLB misses on write requests
system.switch_cpus.fetch.Branches             5904532                       # Number of branches that fetch encountered
system.switch_cpus.fetch.CacheLines           4508265                       # Number of cache lines fetched
system.switch_cpus.fetch.Cycles              11573759                       # Number of cycles fetch has run and was not squashing or blocked
system.switch_cpus.fetch.IcacheSquashes        171564                       # Number of outstanding Icache misses that were squashed
system.switch_cpus.fetch.Insts               28451400                       # Number of instructions fetch has processed
system.switch_cpus.fetch.SquashCycles         1124402                       # Number of cycles fetch has spent squashing
system.switch_cpus.fetch.branchRate          0.348645                       # Number of branch fetches per cycle
system.switch_cpus.fetch.icacheStallCycles      4796910                       # Number of cycles fetch is stalled on an Icache miss
system.switch_cpus.fetch.predictedBranches      2724071                       # Number of branches that fetch has predicted taken
system.switch_cpus.fetch.rate                1.679969                       # Number of inst fetches per cycle
system.switch_cpus.fetch.rateDist::samples     16932870                       # Number of instructions fetched each cycle (Total)
system.switch_cpus.fetch.rateDist::mean      2.726477                       # Number of instructions fetched each cycle (Total)
system.switch_cpus.fetch.rateDist::stdev     3.352242                       # Number of instructions fetched each cycle (Total)
system.switch_cpus.fetch.rateDist::underflows            0      0.00%      0.00% # Number of instructions fetched each cycle (Total)
system.switch_cpus.fetch.rateDist::0          8791898     51.92%     51.92% # Number of instructions fetched each cycle (Total)
system.switch_cpus.fetch.rateDist::1           656756      3.88%     55.80% # Number of instructions fetched each cycle (Total)
system.switch_cpus.fetch.rateDist::2           801027      4.73%     60.53% # Number of instructions fetched each cycle (Total)
system.switch_cpus.fetch.rateDist::3           911268      5.38%     65.91% # Number of instructions fetched each cycle (Total)
system.switch_cpus.fetch.rateDist::4           446599      2.64%     68.55% # Number of instructions fetched each cycle (Total)
system.switch_cpus.fetch.rateDist::5           413020      2.44%     70.99% # Number of instructions fetched each cycle (Total)
system.switch_cpus.fetch.rateDist::6           934042      5.52%     76.51% # Number of instructions fetched each cycle (Total)
system.switch_cpus.fetch.rateDist::7           107367      0.63%     77.14% # Number of instructions fetched each cycle (Total)
system.switch_cpus.fetch.rateDist::8          3870893     22.86%    100.00% # Number of instructions fetched each cycle (Total)
system.switch_cpus.fetch.rateDist::overflows            0      0.00%    100.00% # Number of instructions fetched each cycle (Total)
system.switch_cpus.fetch.rateDist::min_value            0                       # Number of instructions fetched each cycle (Total)
system.switch_cpus.fetch.rateDist::max_value            8                       # Number of instructions fetched each cycle (Total)
system.switch_cpus.fetch.rateDist::total     16932870                       # Number of instructions fetched each cycle (Total)
system.switch_cpus.fp_regfile_reads             18377                       # number of floating regfile reads
system.switch_cpus.fp_regfile_writes            18605                       # number of floating regfile writes
system.switch_cpus.idleCycles                    2803                       # Total number of cycles that the CPU has spent unscheduled due to idling
system.switch_cpus.iew.branchMispredicts       636251                       # Number of branch mispredicts detected at execute
system.switch_cpus.iew.exec_branches          3534467                       # Number of branches executed
system.switch_cpus.iew.exec_nop                     0                       # number of nop insts executed
system.switch_cpus.iew.exec_rate             1.788855                       # Inst execution rate
system.switch_cpus.iew.exec_refs              4554910                       # number of memory reference insts executed
system.switch_cpus.iew.exec_stores            1019920                       # Number of stores executed
system.switch_cpus.iew.exec_swp                     0                       # number of swp insts executed
system.switch_cpus.iew.iewBlockCycles         2336126                       # Number of cycles IEW is blocking
system.switch_cpus.iew.iewDispLoadInsts       3900376                       # Number of dispatched load instructions
system.switch_cpus.iew.iewDispNonSpecInsts            0                       # Number of dispatched non-speculative instructions
system.switch_cpus.iew.iewDispSquashedInsts        60672                       # Number of squashed instructions skipped by dispatch
system.switch_cpus.iew.iewDispStoreInsts      1500415                       # Number of dispatched store instructions
system.switch_cpus.iew.iewDispatchedInsts     35316715                       # Number of instructions dispatched to IQ
system.switch_cpus.iew.iewExecLoadInsts       3534990                       # Number of load instructions executed
system.switch_cpus.iew.iewExecSquashedInsts      1303012                       # Number of squashed instructions skipped in execute
system.switch_cpus.iew.iewExecutedInsts      30295467                       # Number of executed instructions
system.switch_cpus.iew.iewIQFullEvents           4702                       # Number of times the IQ has become full, causing a stall
system.switch_cpus.iew.iewIdleCycles                0                       # Number of cycles IEW is idle
system.switch_cpus.iew.iewLSQFullEvents             0                       # Number of times the LSQ has become full, causing a stall
system.switch_cpus.iew.iewSquashCycles         562201                       # Number of cycles IEW is squashing
system.switch_cpus.iew.iewUnblockCycles          5804                       # Number of cycles IEW is unblocking
system.switch_cpus.iew.lsq.thread0.blockedLoads            0                       # Number of blocked loads due to partial load-store forwarding
system.switch_cpus.iew.lsq.thread0.cacheBlocked        97843                       # Number of times an access to memory failed due to the cache being blocked
system.switch_cpus.iew.lsq.thread0.forwLoads       113548                       # Number of loads that had data forwarded from stores
system.switch_cpus.iew.lsq.thread0.ignoredResponses         1378                       # Number of memory responses ignored because the instruction is squashed
system.switch_cpus.iew.lsq.thread0.invAddrLoads            0                       # Number of loads ignored due to an invalid address
system.switch_cpus.iew.lsq.thread0.invAddrSwpfs            0                       # Number of software prefetches ignored due to an invalid address
system.switch_cpus.iew.lsq.thread0.memOrderViolation         1707                       # Number of memory ordering violations
system.switch_cpus.iew.lsq.thread0.rescheduledLoads            1                       # Number of loads that were rescheduled
system.switch_cpus.iew.lsq.thread0.squashedLoads      2028998                       # Number of loads squashed
system.switch_cpus.iew.lsq.thread0.squashedStores       926334                       # Number of stores squashed
system.switch_cpus.iew.memOrderViolationEvents         1707                       # Number of memory order violations
system.switch_cpus.iew.predictedNotTakenIncorrect       443463                       # Number of branches that were predicted not taken incorrectly
system.switch_cpus.iew.predictedTakenIncorrect       192788                       # Number of branches that were predicted taken incorrectly
system.switch_cpus.iew.wb_consumers          29166960                       # num instructions consuming a value
system.switch_cpus.iew.wb_count              29411277                       # cumulative count of insts written-back
system.switch_cpus.iew.wb_fanout             0.723546                       # average fanout of values written-back
system.switch_cpus.iew.wb_producers          21103629                       # num instructions producing a value
system.switch_cpus.iew.wb_rate               1.736646                       # insts written-back per cycle
system.switch_cpus.iew.wb_sent               29549692                       # cumulative count of insts sent to commit
system.switch_cpus.int_regfile_reads         39640475                       # number of integer regfile reads
system.switch_cpus.int_regfile_writes        24829150                       # number of integer regfile writes
system.switch_cpus.ipc                       0.590470                       # IPC: Instructions Per Cycle
system.switch_cpus.ipc_total                 0.590470                       # IPC: Total IPC of All Threads
system.switch_cpus.iq.FU_type_0::No_OpClass       126092      0.40%      0.40% # Type of FU issued
system.switch_cpus.iq.FU_type_0::IntAlu      26662473     84.38%     84.78% # Type of FU issued
system.switch_cpus.iq.FU_type_0::IntMult        13759      0.04%     84.82% # Type of FU issued
system.switch_cpus.iq.FU_type_0::IntDiv             0      0.00%     84.82% # Type of FU issued
system.switch_cpus.iq.FU_type_0::FloatAdd            0      0.00%     84.82% # Type of FU issued
system.switch_cpus.iq.FU_type_0::FloatCmp            0      0.00%     84.82% # Type of FU issued
system.switch_cpus.iq.FU_type_0::FloatCvt            0      0.00%     84.82% # Type of FU issued
system.switch_cpus.iq.FU_type_0::FloatMult            0      0.00%     84.82% # Type of FU issued
system.switch_cpus.iq.FU_type_0::FloatMultAcc            0      0.00%     84.82% # Type of FU issued
system.switch_cpus.iq.FU_type_0::FloatDiv            0      0.00%     84.82% # Type of FU issued
system.switch_cpus.iq.FU_type_0::FloatMisc            0      0.00%     84.82% # Type of FU issued
system.switch_cpus.iq.FU_type_0::FloatSqrt            0      0.00%     84.82% # Type of FU issued
system.switch_cpus.iq.FU_type_0::SimdAdd            0      0.00%     84.82% # Type of FU issued
system.switch_cpus.iq.FU_type_0::SimdAddAcc            0      0.00%     84.82% # Type of FU issued
system.switch_cpus.iq.FU_type_0::SimdAlu            0      0.00%     84.82% # Type of FU issued
system.switch_cpus.iq.FU_type_0::SimdCmp            0      0.00%     84.82% # Type of FU issued
system.switch_cpus.iq.FU_type_0::SimdCvt            0      0.00%     84.82% # Type of FU issued
system.switch_cpus.iq.FU_type_0::SimdMisc            0      0.00%     84.82% # Type of FU issued
system.switch_cpus.iq.FU_type_0::SimdMult            0      0.00%     84.82% # Type of FU issued
system.switch_cpus.iq.FU_type_0::SimdMultAcc            0      0.00%     84.82% # Type of FU issued
system.switch_cpus.iq.FU_type_0::SimdShift            0      0.00%     84.82% # Type of FU issued
system.switch_cpus.iq.FU_type_0::SimdShiftAcc            0      0.00%     84.82% # Type of FU issued
system.switch_cpus.iq.FU_type_0::SimdDiv            0      0.00%     84.82% # Type of FU issued
system.switch_cpus.iq.FU_type_0::SimdSqrt            0      0.00%     84.82% # Type of FU issued
system.switch_cpus.iq.FU_type_0::SimdFloatAdd            0      0.00%     84.82% # Type of FU issued
system.switch_cpus.iq.FU_type_0::SimdFloatAlu            0      0.00%     84.82% # Type of FU issued
system.switch_cpus.iq.FU_type_0::SimdFloatCmp            0      0.00%     84.82% # Type of FU issued
system.switch_cpus.iq.FU_type_0::SimdFloatCvt            0      0.00%     84.82% # Type of FU issued
system.switch_cpus.iq.FU_type_0::SimdFloatDiv            0      0.00%     84.82% # Type of FU issued
system.switch_cpus.iq.FU_type_0::SimdFloatMisc            0      0.00%     84.82% # Type of FU issued
system.switch_cpus.iq.FU_type_0::SimdFloatMult            0      0.00%     84.82% # Type of FU issued
system.switch_cpus.iq.FU_type_0::SimdFloatMultAcc            0      0.00%     84.82% # Type of FU issued
system.switch_cpus.iq.FU_type_0::SimdFloatSqrt            0      0.00%     84.82% # Type of FU issued
system.switch_cpus.iq.FU_type_0::SimdReduceAdd            0      0.00%     84.82% # Type of FU issued
system.switch_cpus.iq.FU_type_0::SimdReduceAlu            0      0.00%     84.82% # Type of FU issued
system.switch_cpus.iq.FU_type_0::SimdReduceCmp            0      0.00%     84.82% # Type of FU issued
system.switch_cpus.iq.FU_type_0::SimdFloatReduceAdd            0      0.00%     84.82% # Type of FU issued
system.switch_cpus.iq.FU_type_0::SimdFloatReduceCmp            0      0.00%     84.82% # Type of FU issued
system.switch_cpus.iq.FU_type_0::SimdAes            0      0.00%     84.82% # Type of FU issued
system.switch_cpus.iq.FU_type_0::SimdAesMix            0      0.00%     84.82% # Type of FU issued
system.switch_cpus.iq.FU_type_0::SimdSha1Hash            0      0.00%     84.82% # Type of FU issued
system.switch_cpus.iq.FU_type_0::SimdSha1Hash2            0      0.00%     84.82% # Type of FU issued
system.switch_cpus.iq.FU_type_0::SimdSha256Hash            0      0.00%     84.82% # Type of FU issued
system.switch_cpus.iq.FU_type_0::SimdSha256Hash2            0      0.00%     84.82% # Type of FU issued
system.switch_cpus.iq.FU_type_0::SimdShaSigma2            0      0.00%     84.82% # Type of FU issued
system.switch_cpus.iq.FU_type_0::SimdShaSigma3            0      0.00%     84.82% # Type of FU issued
system.switch_cpus.iq.FU_type_0::SimdPredAlu            0      0.00%     84.82% # Type of FU issued
system.switch_cpus.iq.FU_type_0::MemRead      3714310     11.75%     96.58% # Type of FU issued
system.switch_cpus.iq.FU_type_0::MemWrite      1044021      3.30%     99.88% # Type of FU issued
system.switch_cpus.iq.FU_type_0::FloatMemRead        19412      0.06%     99.94% # Type of FU issued
system.switch_cpus.iq.FU_type_0::FloatMemWrite        18418      0.06%    100.00% # Type of FU issued
system.switch_cpus.iq.FU_type_0::IprAccess            0      0.00%    100.00% # Type of FU issued
system.switch_cpus.iq.FU_type_0::InstPrefetch            0      0.00%    100.00% # Type of FU issued
system.switch_cpus.iq.FU_type_0::total       31598485                       # Type of FU issued
system.switch_cpus.iq.fp_alu_accesses           38455                       # Number of floating point alu accesses
system.switch_cpus.iq.fp_inst_queue_reads        76306                       # Number of floating instruction queue reads
system.switch_cpus.iq.fp_inst_queue_wakeup_accesses        36776                       # Number of floating instruction queue wakeup accesses
system.switch_cpus.iq.fp_inst_queue_writes        49966                       # Number of floating instruction queue writes
system.switch_cpus.iq.fu_busy_cnt              488095                       # FU busy when requested
system.switch_cpus.iq.fu_busy_rate           0.015447                       # FU busy rate (busy events/executed inst)
system.switch_cpus.iq.fu_full::No_OpClass            0      0.00%      0.00% # attempts to use FU when none available
system.switch_cpus.iq.fu_full::IntAlu          439103     89.96%     89.96% # attempts to use FU when none available
system.switch_cpus.iq.fu_full::IntMult              0      0.00%     89.96% # attempts to use FU when none available
system.switch_cpus.iq.fu_full::IntDiv               0      0.00%     89.96% # attempts to use FU when none available
system.switch_cpus.iq.fu_full::FloatAdd             0      0.00%     89.96% # attempts to use FU when none available
system.switch_cpus.iq.fu_full::FloatCmp             0      0.00%     89.96% # attempts to use FU when none available
system.switch_cpus.iq.fu_full::FloatCvt             0      0.00%     89.96% # attempts to use FU when none available
system.switch_cpus.iq.fu_full::FloatMult            0      0.00%     89.96% # attempts to use FU when none available
system.switch_cpus.iq.fu_full::FloatMultAcc            0      0.00%     89.96% # attempts to use FU when none available
system.switch_cpus.iq.fu_full::FloatDiv             0      0.00%     89.96% # attempts to use FU when none available
system.switch_cpus.iq.fu_full::FloatMisc            0      0.00%     89.96% # attempts to use FU when none available
system.switch_cpus.iq.fu_full::FloatSqrt            0      0.00%     89.96% # attempts to use FU when none available
system.switch_cpus.iq.fu_full::SimdAdd              0      0.00%     89.96% # attempts to use FU when none available
system.switch_cpus.iq.fu_full::SimdAddAcc            0      0.00%     89.96% # attempts to use FU when none available
system.switch_cpus.iq.fu_full::SimdAlu              0      0.00%     89.96% # attempts to use FU when none available
system.switch_cpus.iq.fu_full::SimdCmp              0      0.00%     89.96% # attempts to use FU when none available
system.switch_cpus.iq.fu_full::SimdCvt              0      0.00%     89.96% # attempts to use FU when none available
system.switch_cpus.iq.fu_full::SimdMisc             0      0.00%     89.96% # attempts to use FU when none available
system.switch_cpus.iq.fu_full::SimdMult             0      0.00%     89.96% # attempts to use FU when none available
system.switch_cpus.iq.fu_full::SimdMultAcc            0      0.00%     89.96% # attempts to use FU when none available
system.switch_cpus.iq.fu_full::SimdShift            0      0.00%     89.96% # attempts to use FU when none available
system.switch_cpus.iq.fu_full::SimdShiftAcc            0      0.00%     89.96% # attempts to use FU when none available
system.switch_cpus.iq.fu_full::SimdDiv              0      0.00%     89.96% # attempts to use FU when none available
system.switch_cpus.iq.fu_full::SimdSqrt             0      0.00%     89.96% # attempts to use FU when none available
system.switch_cpus.iq.fu_full::SimdFloatAdd            0      0.00%     89.96% # attempts to use FU when none available
system.switch_cpus.iq.fu_full::SimdFloatAlu            0      0.00%     89.96% # attempts to use FU when none available
system.switch_cpus.iq.fu_full::SimdFloatCmp            0      0.00%     89.96% # attempts to use FU when none available
system.switch_cpus.iq.fu_full::SimdFloatCvt            0      0.00%     89.96% # attempts to use FU when none available
system.switch_cpus.iq.fu_full::SimdFloatDiv            0      0.00%     89.96% # attempts to use FU when none available
system.switch_cpus.iq.fu_full::SimdFloatMisc            0      0.00%     89.96% # attempts to use FU when none available
system.switch_cpus.iq.fu_full::SimdFloatMult            0      0.00%     89.96% # attempts to use FU when none available
system.switch_cpus.iq.fu_full::SimdFloatMultAcc            0      0.00%     89.96% # attempts to use FU when none available
system.switch_cpus.iq.fu_full::SimdFloatSqrt            0      0.00%     89.96% # attempts to use FU when none available
system.switch_cpus.iq.fu_full::SimdReduceAdd            0      0.00%     89.96% # attempts to use FU when none available
system.switch_cpus.iq.fu_full::SimdReduceAlu            0      0.00%     89.96% # attempts to use FU when none available
system.switch_cpus.iq.fu_full::SimdReduceCmp            0      0.00%     89.96% # attempts to use FU when none available
system.switch_cpus.iq.fu_full::SimdFloatReduceAdd            0      0.00%     89.96% # attempts to use FU when none available
system.switch_cpus.iq.fu_full::SimdFloatReduceCmp            0      0.00%     89.96% # attempts to use FU when none available
system.switch_cpus.iq.fu_full::SimdAes              0      0.00%     89.96% # attempts to use FU when none available
system.switch_cpus.iq.fu_full::SimdAesMix            0      0.00%     89.96% # attempts to use FU when none available
system.switch_cpus.iq.fu_full::SimdSha1Hash            0      0.00%     89.96% # attempts to use FU when none available
system.switch_cpus.iq.fu_full::SimdSha1Hash2            0      0.00%     89.96% # attempts to use FU when none available
system.switch_cpus.iq.fu_full::SimdSha256Hash            0      0.00%     89.96% # attempts to use FU when none available
system.switch_cpus.iq.fu_full::SimdSha256Hash2            0      0.00%     89.96% # attempts to use FU when none available
system.switch_cpus.iq.fu_full::SimdShaSigma2            0      0.00%     89.96% # attempts to use FU when none available
system.switch_cpus.iq.fu_full::SimdShaSigma3            0      0.00%     89.96% # attempts to use FU when none available
system.switch_cpus.iq.fu_full::SimdPredAlu            0      0.00%     89.96% # attempts to use FU when none available
system.switch_cpus.iq.fu_full::MemRead          48197      9.87%     99.84% # attempts to use FU when none available
system.switch_cpus.iq.fu_full::MemWrite           170      0.03%     99.87% # attempts to use FU when none available
system.switch_cpus.iq.fu_full::FloatMemRead          602      0.12%    100.00% # attempts to use FU when none available
system.switch_cpus.iq.fu_full::FloatMemWrite           23      0.00%    100.00% # attempts to use FU when none available
system.switch_cpus.iq.fu_full::IprAccess            0      0.00%    100.00% # attempts to use FU when none available
system.switch_cpus.iq.fu_full::InstPrefetch            0      0.00%    100.00% # attempts to use FU when none available
system.switch_cpus.iq.int_alu_accesses       31922033                       # Number of integer alu accesses
system.switch_cpus.iq.int_inst_queue_reads     80645738                       # Number of integer instruction queue reads
system.switch_cpus.iq.int_inst_queue_wakeup_accesses     29374501                       # Number of integer instruction queue wakeup accesses
system.switch_cpus.iq.int_inst_queue_writes     53759965                       # Number of integer instruction queue writes
system.switch_cpus.iq.iqInstsAdded           35316715                       # Number of instructions added to the IQ (excludes non-spec)
system.switch_cpus.iq.iqInstsIssued          31598485                       # Number of instructions issued
system.switch_cpus.iq.iqSquashedInstsExamined     18491689                       # Number of squashed instructions iterated over during squash; mainly for profiling
system.switch_cpus.iq.iqSquashedInstsIssued       104115                       # Number of squashed instructions issued
system.switch_cpus.iq.iqSquashedOperandsExamined     18878029                       # Number of squashed operands that are examined and possibly removed from graph
system.switch_cpus.iq.issued_per_cycle::samples     16932870                       # Number of insts issued each cycle
system.switch_cpus.iq.issued_per_cycle::mean     1.866103                       # Number of insts issued each cycle
system.switch_cpus.iq.issued_per_cycle::stdev     2.297349                       # Number of insts issued each cycle
system.switch_cpus.iq.issued_per_cycle::underflows            0      0.00%      0.00% # Number of insts issued each cycle
system.switch_cpus.iq.issued_per_cycle::0      8557742     50.54%     50.54% # Number of insts issued each cycle
system.switch_cpus.iq.issued_per_cycle::1       985204      5.82%     56.36% # Number of insts issued each cycle
system.switch_cpus.iq.issued_per_cycle::2      1500423      8.86%     65.22% # Number of insts issued each cycle
system.switch_cpus.iq.issued_per_cycle::3      1497886      8.85%     74.06% # Number of insts issued each cycle
system.switch_cpus.iq.issued_per_cycle::4      1511167      8.92%     82.99% # Number of insts issued each cycle
system.switch_cpus.iq.issued_per_cycle::5      1169308      6.91%     89.89% # Number of insts issued each cycle
system.switch_cpus.iq.issued_per_cycle::6       932804      5.51%     95.40% # Number of insts issued each cycle
system.switch_cpus.iq.issued_per_cycle::7       595943      3.52%     98.92% # Number of insts issued each cycle
system.switch_cpus.iq.issued_per_cycle::8       182393      1.08%    100.00% # Number of insts issued each cycle
system.switch_cpus.iq.issued_per_cycle::overflows            0      0.00%    100.00% # Number of insts issued each cycle
system.switch_cpus.iq.issued_per_cycle::min_value            0                       # Number of insts issued each cycle
system.switch_cpus.iq.issued_per_cycle::max_value            8                       # Number of insts issued each cycle
system.switch_cpus.iq.issued_per_cycle::total     16932870                       # Number of insts issued each cycle
system.switch_cpus.iq.rate                   1.865794                       # Inst issue rate
system.switch_cpus.iq.vec_alu_accesses              0                       # Number of vector alu accesses
system.switch_cpus.iq.vec_inst_queue_reads            0                       # Number of vector instruction queue reads
system.switch_cpus.iq.vec_inst_queue_wakeup_accesses            0                       # Number of vector instruction queue wakeup accesses
system.switch_cpus.iq.vec_inst_queue_writes            0                       # Number of vector instruction queue writes
system.switch_cpus.itb.rdAccesses                   0                       # TLB accesses on read requests
system.switch_cpus.itb.rdMisses                     0                       # TLB misses on read requests
system.switch_cpus.itb.wrAccesses             4508265                       # TLB accesses on write requests
system.switch_cpus.itb.wrMisses                     4                       # TLB misses on write requests
system.switch_cpus.memDep0.conflictingLoads       467301                       # Number of conflicting loads.
system.switch_cpus.memDep0.conflictingStores       571164                       # Number of conflicting stores.
system.switch_cpus.memDep0.insertedLoads      3900376                       # Number of loads inserted to the mem dependence unit.
system.switch_cpus.memDep0.insertedStores      1500415                       # Number of stores inserted to the mem dependence unit.
system.switch_cpus.misc_regfile_reads        12490250                       # number of misc regfile reads
system.switch_cpus.misc_regfile_writes              1                       # number of misc regfile writes
system.switch_cpus.numCycles                 16935673                       # number of cpu cycles simulated
system.switch_cpus.numWorkItemsCompleted            0                       # number of work items this cpu completed
system.switch_cpus.numWorkItemsStarted              0                       # number of work items this cpu started
system.switch_cpus.rename.BlockCycles         5351947                       # Number of cycles rename is blocking
system.switch_cpus.rename.CommittedMaps      20843697                       # Number of HB maps that are committed
system.switch_cpus.rename.IQFullEvents          84069                       # Number of times rename has blocked due to IQ full
system.switch_cpus.rename.IdleCycles          4292788                       # Number of cycles rename is idle
system.switch_cpus.rename.ROBFullEvents        143790                       # Number of times rename has blocked due to ROB full
system.switch_cpus.rename.RenameLookups      97913354                       # Number of register rename lookups that rename has made
system.switch_cpus.rename.RenamedInsts       39968795                       # Number of instructions processed by rename
system.switch_cpus.rename.RenamedOperands     49301487                       # Number of destination operands rename has renamed
system.switch_cpus.rename.RunCycles           6396513                       # Number of cycles rename is running
system.switch_cpus.rename.SQFullEvents            268                       # Number of times rename has blocked due to SQ full
system.switch_cpus.rename.SquashCycles         562201                       # Number of cycles rename is squashing
system.switch_cpus.rename.UnblockCycles        329416                       # Number of cycles rename is unblocking
system.switch_cpus.rename.UndoneMaps         28457739                       # Number of HB maps that are undone due to squashing
system.switch_cpus.rename.fp_rename_lookups        23144                       # Number of floating rename lookups
system.switch_cpus.rename.int_rename_lookups     56336174                       # Number of integer rename lookups
system.switch_cpus.rename.serializeStallCycles            0                       # count of cycles rename stalled for serializing inst
system.switch_cpus.rename.serializingInsts            0                       # count of serializing insts renamed
system.switch_cpus.rename.skidInsts           1263362                       # count of insts added to the skid buffer
system.switch_cpus.rename.tempSerializingInsts            0                       # count of temporary serializing insts renamed
system.switch_cpus.rob.rob_reads             48474750                       # The number of ROB reads
system.switch_cpus.rob.rob_writes            73452537                       # The number of ROB writes
system.switch_cpus.timesIdled                      30                       # Number of times that the entire CPU went into an idle state and unscheduled itself
system.tol2bus.snoop_filter.hit_multi_requests            0                       # Number of requests hitting in the snoop filter with multiple (>1) holders of the requested data.
system.tol2bus.snoop_filter.hit_multi_snoops            0                       # Number of snoops hitting in the snoop filter with multiple (>1) holders of the requested data.
system.tol2bus.snoop_filter.hit_single_requests       296608                       # Number of requests hitting in the snoop filter with a single holder of the requested data.
system.tol2bus.snoop_filter.hit_single_snoops         5306                       # Number of snoops hitting in the snoop filter with a single holder of the requested data.
system.tol2bus.snoop_filter.tot_requests       594294                       # Total number of requests made to the snoop filter.
system.tol2bus.snoop_filter.tot_snoops           5306                       # Total number of snoops made to the snoop filter.
system.membus.pwrStateResidencyTicks::UNDEFINED 926048071129000                       # Cumulative time (in ticks) in various power states
system.membus.trans_dist::ReadResp              90455                       # Transaction distribution
system.membus.trans_dist::WritebackDirty         5072                       # Transaction distribution
system.membus.trans_dist::CleanEvict            81253                       # Transaction distribution
system.membus.trans_dist::ReadExReq                20                       # Transaction distribution
system.membus.trans_dist::ReadExResp               20                       # Transaction distribution
system.membus.trans_dist::ReadSharedReq         90456                       # Transaction distribution
system.membus.pkt_count_system.l2.mem_side::system.mem_ctrls.port       267276                       # Packet count per connected master and slave (bytes)
system.membus.pkt_count_system.l2.mem_side::total       267276                       # Packet count per connected master and slave (bytes)
system.membus.pkt_count::total                 267276                       # Packet count per connected master and slave (bytes)
system.membus.pkt_size_system.l2.mem_side::system.mem_ctrls.port      6115008                       # Cumulative packet size per connected master and slave (bytes)
system.membus.pkt_size_system.l2.mem_side::total      6115008                       # Cumulative packet size per connected master and slave (bytes)
system.membus.pkt_size::total                 6115008                       # Cumulative packet size per connected master and slave (bytes)
system.membus.snoops                                0                       # Total snoops (count)
system.membus.snoopTraffic                          0                       # Total snoop traffic (bytes)
system.membus.snoop_fanout::samples             90476                       # Request fanout histogram
system.membus.snoop_fanout::mean                    0                       # Request fanout histogram
system.membus.snoop_fanout::stdev                   0                       # Request fanout histogram
system.membus.snoop_fanout::underflows              0      0.00%      0.00% # Request fanout histogram
system.membus.snoop_fanout::0                   90476    100.00%    100.00% # Request fanout histogram
system.membus.snoop_fanout::1                       0      0.00%    100.00% # Request fanout histogram
system.membus.snoop_fanout::overflows               0      0.00%    100.00% # Request fanout histogram
system.membus.snoop_fanout::min_value               0                       # Request fanout histogram
system.membus.snoop_fanout::max_value               0                       # Request fanout histogram
system.membus.snoop_fanout::total               90476                       # Request fanout histogram
system.membus.reqLayer2.occupancy           215205484                       # Layer occupancy (ticks)
system.membus.reqLayer2.utilization               2.5                       # Layer utilization (%)
system.membus.respLayer1.occupancy          480219490                       # Layer occupancy (ticks)
system.membus.respLayer1.utilization              5.7                       # Layer utilization (%)
system.switch_cpus.pwrStateResidencyTicks::OFF   8467846500                       # Cumulative time (in ticks) in various power states
system.switch_cpus.dtb.walker.pwrStateResidencyTicks::UNDEFINED 926048071129000                       # Cumulative time (in ticks) in various power states
system.switch_cpus.itb.walker.pwrStateResidencyTicks::UNDEFINED 926048071129000                       # Cumulative time (in ticks) in various power states
system.tol2bus.pwrStateResidencyTicks::UNDEFINED 926048071129000                       # Cumulative time (in ticks) in various power states
system.tol2bus.trans_dist::ReadResp            297130                       # Transaction distribution
system.tol2bus.trans_dist::WritebackDirty        22439                       # Transaction distribution
system.tol2bus.trans_dist::CleanEvict          360944                       # Transaction distribution
system.tol2bus.trans_dist::HardPFReq             3780                       # Transaction distribution
system.tol2bus.trans_dist::ReadExReq              555                       # Transaction distribution
system.tol2bus.trans_dist::ReadExResp             555                       # Transaction distribution
system.tol2bus.trans_dist::ReadCleanReq            53                       # Transaction distribution
system.tol2bus.trans_dist::ReadSharedReq       297078                       # Transaction distribution
system.tol2bus.pkt_count_system.cpu.icache.mem_side::system.l2.cpu_side          106                       # Packet count per connected master and slave (bytes)
system.tol2bus.pkt_count_system.cpu.dcache.mem_side::system.l2.cpu_side       891873                       # Packet count per connected master and slave (bytes)
system.tol2bus.pkt_count::total                891979                       # Packet count per connected master and slave (bytes)
system.tol2bus.pkt_size_system.cpu.icache.mem_side::system.l2.cpu_side         3392                       # Cumulative packet size per connected master and slave (bytes)
system.tol2bus.pkt_size_system.cpu.dcache.mem_side::system.l2.cpu_side     20159936                       # Cumulative packet size per connected master and slave (bytes)
system.tol2bus.pkt_size::total               20163328                       # Cumulative packet size per connected master and slave (bytes)
system.tol2bus.snoops                           90555                       # Total snoops (count)
system.tol2bus.snoopTraffic                    324608                       # Total snoop traffic (bytes)
system.tol2bus.snoop_fanout::samples           388241                       # Request fanout histogram
system.tol2bus.snoop_fanout::mean            0.013667                       # Request fanout histogram
system.tol2bus.snoop_fanout::stdev           0.116104                       # Request fanout histogram
system.tol2bus.snoop_fanout::underflows             0      0.00%      0.00% # Request fanout histogram
system.tol2bus.snoop_fanout::0                 382935     98.63%     98.63% # Request fanout histogram
system.tol2bus.snoop_fanout::1                   5306      1.37%    100.00% # Request fanout histogram
system.tol2bus.snoop_fanout::2                      0      0.00%    100.00% # Request fanout histogram
system.tol2bus.snoop_fanout::3                      0      0.00%    100.00% # Request fanout histogram
system.tol2bus.snoop_fanout::4                      0      0.00%    100.00% # Request fanout histogram
system.tol2bus.snoop_fanout::overflows              0      0.00%    100.00% # Request fanout histogram
system.tol2bus.snoop_fanout::min_value              0                       # Request fanout histogram
system.tol2bus.snoop_fanout::max_value              1                       # Request fanout histogram
system.tol2bus.snoop_fanout::total             388241                       # Request fanout histogram
system.tol2bus.reqLayer0.occupancy          314512000                       # Layer occupancy (ticks)
system.tol2bus.reqLayer0.utilization              3.7                       # Layer utilization (%)
system.tol2bus.respLayer1.occupancy         446445000                       # Layer occupancy (ticks)
system.tol2bus.respLayer1.utilization             5.3                       # Layer utilization (%)
system.tol2bus.respLayer0.occupancy             76500                       # Layer occupancy (ticks)
system.tol2bus.respLayer0.utilization             0.0                       # Layer utilization (%)
system.voltage_domain.voltage                       1                       # Voltage in Volts
system.clk_domain.clock                          1000                       # Clock period in ticks
system.l2.pwrStateResidencyTicks::UNDEFINED 926048071129000                       # Cumulative time (in ticks) in various power states
system.l2.demand_hits::.switch_cpus.data       209357                       # number of demand (read+write) hits
system.l2.demand_hits::total                   209357                       # number of demand (read+write) hits
system.l2.overall_hits::.switch_cpus.data       209357                       # number of overall hits
system.l2.overall_hits::total                  209357                       # number of overall hits
system.l2.demand_misses::.cpu.inst                  2                       # number of demand (read+write) misses
system.l2.demand_misses::.cpu.data                  2                       # number of demand (read+write) misses
system.l2.demand_misses::.switch_cpus.inst           51                       # number of demand (read+write) misses
system.l2.demand_misses::.switch_cpus.data        88274                       # number of demand (read+write) misses
system.l2.demand_misses::total                  88329                       # number of demand (read+write) misses
system.l2.overall_misses::.cpu.inst                 2                       # number of overall misses
system.l2.overall_misses::.cpu.data                 2                       # number of overall misses
system.l2.overall_misses::.switch_cpus.inst           51                       # number of overall misses
system.l2.overall_misses::.switch_cpus.data        88274                       # number of overall misses
system.l2.overall_misses::total                 88329                       # number of overall misses
system.l2.demand_miss_latency::.switch_cpus.inst      4012000                       # number of demand (read+write) miss cycles
system.l2.demand_miss_latency::.switch_cpus.data   7505644000                       # number of demand (read+write) miss cycles
system.l2.demand_miss_latency::total       7509656000                       # number of demand (read+write) miss cycles
system.l2.overall_miss_latency::.switch_cpus.inst      4012000                       # number of overall miss cycles
system.l2.overall_miss_latency::.switch_cpus.data   7505644000                       # number of overall miss cycles
system.l2.overall_miss_latency::total      7509656000                       # number of overall miss cycles
system.l2.demand_accesses::.cpu.inst                2                       # number of demand (read+write) accesses
system.l2.demand_accesses::.cpu.data                2                       # number of demand (read+write) accesses
system.l2.demand_accesses::.switch_cpus.inst           51                       # number of demand (read+write) accesses
system.l2.demand_accesses::.switch_cpus.data       297631                       # number of demand (read+write) accesses
system.l2.demand_accesses::total               297686                       # number of demand (read+write) accesses
system.l2.overall_accesses::.cpu.inst               2                       # number of overall (read+write) accesses
system.l2.overall_accesses::.cpu.data               2                       # number of overall (read+write) accesses
system.l2.overall_accesses::.switch_cpus.inst           51                       # number of overall (read+write) accesses
system.l2.overall_accesses::.switch_cpus.data       297631                       # number of overall (read+write) accesses
system.l2.overall_accesses::total              297686                       # number of overall (read+write) accesses
system.l2.demand_miss_rate::.cpu.inst               1                       # miss rate for demand accesses
system.l2.demand_miss_rate::.cpu.data               1                       # miss rate for demand accesses
system.l2.demand_miss_rate::.switch_cpus.inst            1                       # miss rate for demand accesses
system.l2.demand_miss_rate::.switch_cpus.data     0.296589                       # miss rate for demand accesses
system.l2.demand_miss_rate::total            0.296719                       # miss rate for demand accesses
system.l2.overall_miss_rate::.cpu.inst              1                       # miss rate for overall accesses
system.l2.overall_miss_rate::.cpu.data              1                       # miss rate for overall accesses
system.l2.overall_miss_rate::.switch_cpus.inst            1                       # miss rate for overall accesses
system.l2.overall_miss_rate::.switch_cpus.data     0.296589                       # miss rate for overall accesses
system.l2.overall_miss_rate::total           0.296719                       # miss rate for overall accesses
system.l2.demand_avg_miss_latency::.switch_cpus.inst 78666.666667                       # average overall miss latency
system.l2.demand_avg_miss_latency::.switch_cpus.data 85026.666969                       # average overall miss latency
system.l2.demand_avg_miss_latency::total 85019.144335                       # average overall miss latency
system.l2.overall_avg_miss_latency::.switch_cpus.inst 78666.666667                       # average overall miss latency
system.l2.overall_avg_miss_latency::.switch_cpus.data 85026.666969                       # average overall miss latency
system.l2.overall_avg_miss_latency::total 85019.144335                       # average overall miss latency
system.l2.blocked_cycles::no_mshrs                  0                       # number of cycles access was blocked
system.l2.blocked_cycles::no_targets                0                       # number of cycles access was blocked
system.l2.blocked::no_mshrs                         0                       # number of cycles access was blocked
system.l2.blocked::no_targets                       0                       # number of cycles access was blocked
system.l2.avg_blocked_cycles::no_mshrs            nan                       # average number of cycles each access was blocked
system.l2.avg_blocked_cycles::no_targets          nan                       # average number of cycles each access was blocked
system.l2.unused_prefetches                        23                       # number of HardPF blocks evicted w/o reference
system.l2.writebacks::.writebacks                5072                       # number of writebacks
system.l2.writebacks::total                      5072                       # number of writebacks
system.l2.demand_mshr_misses::.switch_cpus.inst           51                       # number of demand (read+write) MSHR misses
system.l2.demand_mshr_misses::.switch_cpus.data        88274                       # number of demand (read+write) MSHR misses
system.l2.demand_mshr_misses::total             88325                       # number of demand (read+write) MSHR misses
system.l2.overall_mshr_misses::.l2.prefetcher         2147                       # number of overall MSHR misses
system.l2.overall_mshr_misses::.switch_cpus.inst           51                       # number of overall MSHR misses
system.l2.overall_mshr_misses::.switch_cpus.data        88274                       # number of overall MSHR misses
system.l2.overall_mshr_misses::total            90472                       # number of overall MSHR misses
system.l2.demand_mshr_miss_latency::.switch_cpus.inst      3502000                       # number of demand (read+write) MSHR miss cycles
system.l2.demand_mshr_miss_latency::.switch_cpus.data   6622914000                       # number of demand (read+write) MSHR miss cycles
system.l2.demand_mshr_miss_latency::total   6626416000                       # number of demand (read+write) MSHR miss cycles
system.l2.overall_mshr_miss_latency::.l2.prefetcher    152018340                       # number of overall MSHR miss cycles
system.l2.overall_mshr_miss_latency::.switch_cpus.inst      3502000                       # number of overall MSHR miss cycles
system.l2.overall_mshr_miss_latency::.switch_cpus.data   6622914000                       # number of overall MSHR miss cycles
system.l2.overall_mshr_miss_latency::total   6778434340                       # number of overall MSHR miss cycles
system.l2.demand_mshr_miss_rate::.switch_cpus.inst            1                       # mshr miss rate for demand accesses
system.l2.demand_mshr_miss_rate::.switch_cpus.data     0.296589                       # mshr miss rate for demand accesses
system.l2.demand_mshr_miss_rate::total       0.296705                       # mshr miss rate for demand accesses
system.l2.overall_mshr_miss_rate::.l2.prefetcher          inf                       # mshr miss rate for overall accesses
system.l2.overall_mshr_miss_rate::.switch_cpus.inst            1                       # mshr miss rate for overall accesses
system.l2.overall_mshr_miss_rate::.switch_cpus.data     0.296589                       # mshr miss rate for overall accesses
system.l2.overall_mshr_miss_rate::total      0.303918                       # mshr miss rate for overall accesses
system.l2.demand_avg_mshr_miss_latency::.switch_cpus.inst 68666.666667                       # average overall mshr miss latency
system.l2.demand_avg_mshr_miss_latency::.switch_cpus.data 75026.780252                       # average overall mshr miss latency
system.l2.demand_avg_mshr_miss_latency::total 75023.107840                       # average overall mshr miss latency
system.l2.overall_avg_mshr_miss_latency::.l2.prefetcher 70805.002329                       # average overall mshr miss latency
system.l2.overall_avg_mshr_miss_latency::.switch_cpus.inst 68666.666667                       # average overall mshr miss latency
system.l2.overall_avg_mshr_miss_latency::.switch_cpus.data 75026.780252                       # average overall mshr miss latency
system.l2.overall_avg_mshr_miss_latency::total 74923.007560                       # average overall mshr miss latency
system.l2.replacements                          86775                       # number of replacements
system.l2.WritebackDirty_hits::.writebacks        17367                       # number of WritebackDirty hits
system.l2.WritebackDirty_hits::total            17367                       # number of WritebackDirty hits
system.l2.WritebackDirty_accesses::.writebacks        17367                       # number of WritebackDirty accesses(hits+misses)
system.l2.WritebackDirty_accesses::total        17367                       # number of WritebackDirty accesses(hits+misses)
system.l2.CleanEvict_mshr_misses::.writebacks         4856                       # number of CleanEvict MSHR misses
system.l2.CleanEvict_mshr_misses::total          4856                       # number of CleanEvict MSHR misses
system.l2.CleanEvict_mshr_miss_rate::.writebacks          inf                       # mshr miss rate for CleanEvict accesses
system.l2.CleanEvict_mshr_miss_rate::total          inf                       # mshr miss rate for CleanEvict accesses
system.l2.HardPFReq_mshr_misses::.l2.prefetcher         2147                       # number of HardPFReq MSHR misses
system.l2.HardPFReq_mshr_misses::total           2147                       # number of HardPFReq MSHR misses
system.l2.HardPFReq_mshr_miss_latency::.l2.prefetcher    152018340                       # number of HardPFReq MSHR miss cycles
system.l2.HardPFReq_mshr_miss_latency::total    152018340                       # number of HardPFReq MSHR miss cycles
system.l2.HardPFReq_mshr_miss_rate::.l2.prefetcher          inf                       # mshr miss rate for HardPFReq accesses
system.l2.HardPFReq_mshr_miss_rate::total          inf                       # mshr miss rate for HardPFReq accesses
system.l2.HardPFReq_avg_mshr_miss_latency::.l2.prefetcher 70805.002329                       # average HardPFReq mshr miss latency
system.l2.HardPFReq_avg_mshr_miss_latency::total 70805.002329                       # average HardPFReq mshr miss latency
system.l2.ReadExReq_hits::.switch_cpus.data          535                       # number of ReadExReq hits
system.l2.ReadExReq_hits::total                   535                       # number of ReadExReq hits
system.l2.ReadExReq_misses::.switch_cpus.data           20                       # number of ReadExReq misses
system.l2.ReadExReq_misses::total                  20                       # number of ReadExReq misses
system.l2.ReadExReq_miss_latency::.switch_cpus.data      1016000                       # number of ReadExReq miss cycles
system.l2.ReadExReq_miss_latency::total       1016000                       # number of ReadExReq miss cycles
system.l2.ReadExReq_accesses::.switch_cpus.data          555                       # number of ReadExReq accesses(hits+misses)
system.l2.ReadExReq_accesses::total               555                       # number of ReadExReq accesses(hits+misses)
system.l2.ReadExReq_miss_rate::.switch_cpus.data     0.036036                       # miss rate for ReadExReq accesses
system.l2.ReadExReq_miss_rate::total         0.036036                       # miss rate for ReadExReq accesses
system.l2.ReadExReq_avg_miss_latency::.switch_cpus.data        50800                       # average ReadExReq miss latency
system.l2.ReadExReq_avg_miss_latency::total        50800                       # average ReadExReq miss latency
system.l2.ReadExReq_mshr_misses::.switch_cpus.data           20                       # number of ReadExReq MSHR misses
system.l2.ReadExReq_mshr_misses::total             20                       # number of ReadExReq MSHR misses
system.l2.ReadExReq_mshr_miss_latency::.switch_cpus.data       816000                       # number of ReadExReq MSHR miss cycles
system.l2.ReadExReq_mshr_miss_latency::total       816000                       # number of ReadExReq MSHR miss cycles
system.l2.ReadExReq_mshr_miss_rate::.switch_cpus.data     0.036036                       # mshr miss rate for ReadExReq accesses
system.l2.ReadExReq_mshr_miss_rate::total     0.036036                       # mshr miss rate for ReadExReq accesses
system.l2.ReadExReq_avg_mshr_miss_latency::.switch_cpus.data        40800                       # average ReadExReq mshr miss latency
system.l2.ReadExReq_avg_mshr_miss_latency::total        40800                       # average ReadExReq mshr miss latency
system.l2.ReadCleanReq_misses::.cpu.inst            2                       # number of ReadCleanReq misses
system.l2.ReadCleanReq_misses::.switch_cpus.inst           51                       # number of ReadCleanReq misses
system.l2.ReadCleanReq_misses::total               53                       # number of ReadCleanReq misses
system.l2.ReadCleanReq_miss_latency::.switch_cpus.inst      4012000                       # number of ReadCleanReq miss cycles
system.l2.ReadCleanReq_miss_latency::total      4012000                       # number of ReadCleanReq miss cycles
system.l2.ReadCleanReq_accesses::.cpu.inst            2                       # number of ReadCleanReq accesses(hits+misses)
[...]
system.cpu.icache.tags.occ_task_id_percent::1024     0.113281                       # Percentage of cache occupancy per task id
system.cpu.icache.tags.tag_accesses          29538000                       # Number of tag accesses
system.cpu.icache.tags.data_accesses         29538000                       # Number of data accesses
system.cpu.dtb.walker.pwrStateResidencyTicks::UNDEFINED 926115471061000                       # Cumulative time (in ticks) in various power states
system.cpu.interrupts.clk_domain.clock           8000                       # Clock period in ticks
system.cpu.itb_walker_cache.pwrStateResidencyTicks::UNDEFINED 926115471061000                       # Cumulative time (in ticks) in various power states
system.cpu.itb_walker_cache.blocked_cycles::no_mshrs            0                       # number of cycles access was blocked
system.cpu.itb_walker_cache.blocked_cycles::no_targets            0                       # number of cycles access was blocked
system.cpu.itb_walker_cache.blocked::no_mshrs            0                       # number of cycles access was blocked
system.cpu.itb_walker_cache.blocked::no_targets            0                       # number of cycles access was blocked
system.cpu.itb_walker_cache.avg_blocked_cycles::no_mshrs          nan                       # average number of cycles each access was blocked
system.cpu.itb_walker_cache.avg_blocked_cycles::no_targets          nan                       # average number of cycles each access was blocked
system.cpu.itb_walker_cache.replacements            0                       # number of replacements
system.cpu.itb_walker_cache.tags.pwrStateResidencyTicks::UNDEFINED 926115471061000                       # Cumulative time (in ticks) in various power states
system.cpu.itb_walker_cache.tags.tagsinuse            0                       # Cycle average of tags in use
system.cpu.itb_walker_cache.tags.total_refs            0                       # Total number of references to valid blocks.
system.cpu.itb_walker_cache.tags.sampled_refs            0                       # Sample count of references to valid blocks.
system.cpu.itb_walker_cache.tags.avg_refs          nan                       # Average number of references to valid blocks.
system.cpu.itb_walker_cache.tags.warmup_cycle            0                       # Cycle when the warmup percentage was hit.
system.cpu.itb_walker_cache.tags.tag_accesses            0                       # Number of tag accesses
system.cpu.itb_walker_cache.tags.data_accesses            0                       # Number of data accesses
system.cpu.itb.walker.pwrStateResidencyTicks::UNDEFINED 926115471061000                       # Cumulative time (in ticks) in various power states
system.cpu.dtb_walker_cache.pwrStateResidencyTicks::UNDEFINED 926115471061000                       # Cumulative time (in ticks) in various power states
system.cpu.dtb_walker_cache.blocked_cycles::no_mshrs            0                       # number of cycles access was blocked
system.cpu.dtb_walker_cache.blocked_cycles::no_targets            0                       # number of cycles access was blocked
system.cpu.dtb_walker_cache.blocked::no_mshrs            0                       # number of cycles access was blocked
system.cpu.dtb_walker_cache.blocked::no_targets            0                       # number of cycles access was blocked
system.cpu.dtb_walker_cache.avg_blocked_cycles::no_mshrs          nan                       # average number of cycles each access was blocked
system.cpu.dtb_walker_cache.avg_blocked_cycles::no_targets          nan                       # average number of cycles each access was blocked
system.cpu.dtb_walker_cache.replacements            0                       # number of replacements
system.cpu.dtb_walker_cache.tags.pwrStateResidencyTicks::UNDEFINED 926115471061000                       # Cumulative time (in ticks) in various power states
system.cpu.dtb_walker_cache.tags.tagsinuse            0                       # Cycle average of tags in use
system.cpu.dtb_walker_cache.tags.total_refs            0                       # Total number of references to valid blocks.
system.cpu.dtb_walker_cache.tags.sampled_refs            0                       # Sample count of references to valid blocks.
system.cpu.dtb_walker_cache.tags.avg_refs          nan                       # Average number of references to valid blocks.
system.cpu.dtb_walker_cache.tags.warmup_cycle            0                       # Cycle when the warmup percentage was hit.
system.cpu.dtb_walker_cache.tags.tag_accesses            0                       # Number of tag accesses
system.cpu.dtb_walker_cache.tags.data_accesses            0                       # Number of data accesses
system.cpu.dcache.pwrStateResidencyTicks::UNDEFINED 926115471061000                       # Cumulative time (in ticks) in various power states
system.cpu.dcache.demand_hits::.switch_cpus.data     12157981                       # number of demand (read+write) hits
system.cpu.dcache.demand_hits::total         12157981                       # number of demand (read+write) hits
system.cpu.dcache.overall_hits::.switch_cpus.data     12157981                       # number of overall hits
system.cpu.dcache.overall_hits::total        12157981                       # number of overall hits
system.cpu.dcache.demand_misses::.cpu.data            2                       # number of demand (read+write) misses
system.cpu.dcache.demand_misses::.switch_cpus.data      1557806                       # number of demand (read+write) misses
system.cpu.dcache.demand_misses::total        1557808                       # number of demand (read+write) misses
system.cpu.dcache.overall_misses::.cpu.data            2                       # number of overall misses
system.cpu.dcache.overall_misses::.switch_cpus.data      1557806                       # number of overall misses
system.cpu.dcache.overall_misses::total       1557808                       # number of overall misses
system.cpu.dcache.demand_miss_latency::.switch_cpus.data  96167129997                       # number of demand (read+write) miss cycles
system.cpu.dcache.demand_miss_latency::total  96167129997                       # number of demand (read+write) miss cycles
system.cpu.dcache.overall_miss_latency::.switch_cpus.data  96167129997                       # number of overall miss cycles
system.cpu.dcache.overall_miss_latency::total  96167129997                       # number of overall miss cycles
system.cpu.dcache.demand_accesses::.cpu.data            2                       # number of demand (read+write) accesses
system.cpu.dcache.demand_accesses::.switch_cpus.data     13715787                       # number of demand (read+write) accesses
system.cpu.dcache.demand_accesses::total     13715789                       # number of demand (read+write) accesses
system.cpu.dcache.overall_accesses::.cpu.data            2                       # number of overall (read+write) accesses
system.cpu.dcache.overall_accesses::.switch_cpus.data     13715787                       # number of overall (read+write) accesses
system.cpu.dcache.overall_accesses::total     13715789                       # number of overall (read+write) accesses
system.cpu.dcache.demand_miss_rate::.cpu.data            1                       # miss rate for demand accesses
system.cpu.dcache.demand_miss_rate::.switch_cpus.data     0.113578                       # miss rate for demand accesses
system.cpu.dcache.demand_miss_rate::total     0.113578                       # miss rate for demand accesses
system.cpu.dcache.overall_miss_rate::.cpu.data            1                       # miss rate for overall accesses
system.cpu.dcache.overall_miss_rate::.switch_cpus.data     0.113578                       # miss rate for overall accesses
system.cpu.dcache.overall_miss_rate::total     0.113578                       # miss rate for overall accesses
system.cpu.dcache.demand_avg_miss_latency::.switch_cpus.data 61732.417257                       # average overall miss latency
system.cpu.dcache.demand_avg_miss_latency::total 61732.338001                       # average overall miss latency
system.cpu.dcache.overall_avg_miss_latency::.switch_cpus.data 61732.417257                       # average overall miss latency
system.cpu.dcache.overall_avg_miss_latency::total 61732.338001                       # average overall miss latency
system.cpu.dcache.blocked_cycles::no_mshrs      9978412                       # number of cycles access was blocked
system.cpu.dcache.blocked_cycles::no_targets          691                       # number of cycles access was blocked
system.cpu.dcache.blocked::no_mshrs            295244                       # number of cycles access was blocked
system.cpu.dcache.blocked::no_targets              39                       # number of cycles access was blocked
system.cpu.dcache.avg_blocked_cycles::no_mshrs    33.797171                       # average number of cycles each access was blocked
system.cpu.dcache.avg_blocked_cycles::no_targets    17.717949                       # average number of cycles each access was blocked
system.cpu.dcache.writebacks::.writebacks       531219                       # number of writebacks
system.cpu.dcache.writebacks::total            531219                       # number of writebacks
system.cpu.dcache.demand_mshr_hits::.switch_cpus.data       258648                       # number of demand (read+write) MSHR hits
system.cpu.dcache.demand_mshr_hits::total       258648                       # number of demand (read+write) MSHR hits
system.cpu.dcache.overall_mshr_hits::.switch_cpus.data       258648                       # number of overall MSHR hits
system.cpu.dcache.overall_mshr_hits::total       258648                       # number of overall MSHR hits
system.cpu.dcache.demand_mshr_misses::.switch_cpus.data      1299158                       # number of demand (read+write) MSHR misses
system.cpu.dcache.demand_mshr_misses::total      1299158                       # number of demand (read+write) MSHR misses
system.cpu.dcache.overall_mshr_misses::.switch_cpus.data      1299158                       # number of overall MSHR misses
system.cpu.dcache.overall_mshr_misses::total      1299158                       # number of overall MSHR misses
system.cpu.dcache.demand_mshr_miss_latency::.switch_cpus.data  84508315497                       # number of demand (read+write) MSHR miss cycles
system.cpu.dcache.demand_mshr_miss_latency::total  84508315497                       # number of demand (read+write) MSHR miss cycles
system.cpu.dcache.overall_mshr_miss_latency::.switch_cpus.data  84508315497                       # number of overall MSHR miss cycles
system.cpu.dcache.overall_mshr_miss_latency::total  84508315497                       # number of overall MSHR miss cycles
system.cpu.dcache.demand_mshr_miss_rate::.switch_cpus.data     0.094720                       # mshr miss rate for demand accesses
system.cpu.dcache.demand_mshr_miss_rate::total     0.094720                       # mshr miss rate for demand accesses
system.cpu.dcache.overall_mshr_miss_rate::.switch_cpus.data     0.094720                       # mshr miss rate for overall accesses
system.cpu.dcache.overall_mshr_miss_rate::total     0.094720                       # mshr miss rate for overall accesses
system.cpu.dcache.demand_avg_mshr_miss_latency::.switch_cpus.data 65048.527967                       # average overall mshr miss latency
system.cpu.dcache.demand_avg_mshr_miss_latency::total 65048.527967                       # average overall mshr miss latency
system.cpu.dcache.overall_avg_mshr_miss_latency::.switch_cpus.data 65048.527967                       # average overall mshr miss latency
system.cpu.dcache.overall_avg_mshr_miss_latency::total 65048.527967                       # average overall mshr miss latency
system.cpu.dcache.replacements                1298136                       # number of replacements
system.cpu.dcache.ReadReq_hits::.switch_cpus.data     10157385                       # number of ReadReq hits
system.cpu.dcache.ReadReq_hits::total        10157385                       # number of ReadReq hits
system.cpu.dcache.ReadReq_misses::.cpu.data            2                       # number of ReadReq misses
system.cpu.dcache.ReadReq_misses::.switch_cpus.data      1072673                       # number of ReadReq misses
system.cpu.dcache.ReadReq_misses::total       1072675                       # number of ReadReq misses
system.cpu.dcache.ReadReq_miss_latency::.switch_cpus.data  50315627500                       # number of ReadReq miss cycles
system.cpu.dcache.ReadReq_miss_latency::total  50315627500                       # number of ReadReq miss cycles
system.cpu.dcache.ReadReq_accesses::.cpu.data            2                       # number of ReadReq accesses(hits+misses)
system.cpu.dcache.ReadReq_accesses::.switch_cpus.data     11230058                       # number of ReadReq accesses(hits+misses)
system.cpu.dcache.ReadReq_accesses::total     11230060                       # number of ReadReq accesses(hits+misses)
system.cpu.dcache.ReadReq_miss_rate::.cpu.data            1                       # miss rate for ReadReq accesses
system.cpu.dcache.ReadReq_miss_rate::.switch_cpus.data     0.095518                       # miss rate for ReadReq accesses
system.cpu.dcache.ReadReq_miss_rate::total     0.095518                       # miss rate for ReadReq accesses
system.cpu.dcache.ReadReq_avg_miss_latency::.switch_cpus.data 46906.771682                       # average ReadReq miss latency
system.cpu.dcache.ReadReq_avg_miss_latency::total 46906.684224                       # average ReadReq miss latency
system.cpu.dcache.ReadReq_mshr_hits::.switch_cpus.data       258642                       # number of ReadReq MSHR hits
system.cpu.dcache.ReadReq_mshr_hits::total       258642                       # number of ReadReq MSHR hits
system.cpu.dcache.ReadReq_mshr_misses::.switch_cpus.data       814031                       # number of ReadReq MSHR misses
system.cpu.dcache.ReadReq_mshr_misses::total       814031                       # number of ReadReq MSHR misses
system.cpu.dcache.ReadReq_mshr_miss_latency::.switch_cpus.data  39142012000                       # number of ReadReq MSHR miss cycles
system.cpu.dcache.ReadReq_mshr_miss_latency::total  39142012000                       # number of ReadReq MSHR miss cycles
system.cpu.dcache.ReadReq_mshr_miss_rate::.switch_cpus.data     0.072487                       # mshr miss rate for ReadReq accesses
system.cpu.dcache.ReadReq_mshr_miss_rate::total     0.072487                       # mshr miss rate for ReadReq accesses
system.cpu.dcache.ReadReq_avg_mshr_miss_latency::.switch_cpus.data 48084.178612                       # average ReadReq mshr miss latency
system.cpu.dcache.ReadReq_avg_mshr_miss_latency::total 48084.178612                       # average ReadReq mshr miss latency
system.cpu.dcache.WriteReq_hits::.switch_cpus.data      2000596                       # number of WriteReq hits
system.cpu.dcache.WriteReq_hits::total        2000596                       # number of WriteReq hits
system.cpu.dcache.WriteReq_misses::.switch_cpus.data       485133                       # number of WriteReq misses
system.cpu.dcache.WriteReq_misses::total       485133                       # number of WriteReq misses
system.cpu.dcache.WriteReq_miss_latency::.switch_cpus.data  45851502497                       # number of WriteReq miss cycles
system.cpu.dcache.WriteReq_miss_latency::total  45851502497                       # number of WriteReq miss cycles
system.cpu.dcache.WriteReq_accesses::.switch_cpus.data      2485729                       # number of WriteReq accesses(hits+misses)
system.cpu.dcache.WriteReq_accesses::total      2485729                       # number of WriteReq accesses(hits+misses)
system.cpu.dcache.WriteReq_miss_rate::.switch_cpus.data     0.195167                       # miss rate for WriteReq accesses
system.cpu.dcache.WriteReq_miss_rate::total     0.195167                       # miss rate for WriteReq accesses
system.cpu.dcache.WriteReq_avg_miss_latency::.switch_cpus.data 94513.262336                       # average WriteReq miss latency
system.cpu.dcache.WriteReq_avg_miss_latency::total 94513.262336                       # average WriteReq miss latency
system.cpu.dcache.WriteReq_mshr_hits::.switch_cpus.data            6                       # number of WriteReq MSHR hits
system.cpu.dcache.WriteReq_mshr_hits::total            6                       # number of WriteReq MSHR hits
system.cpu.dcache.WriteReq_mshr_misses::.switch_cpus.data       485127                       # number of WriteReq MSHR misses
system.cpu.dcache.WriteReq_mshr_misses::total       485127                       # number of WriteReq MSHR misses
system.cpu.dcache.WriteReq_mshr_miss_latency::.switch_cpus.data  45366303497                       # number of WriteReq MSHR miss cycles
system.cpu.dcache.WriteReq_mshr_miss_latency::total  45366303497                       # number of WriteReq MSHR miss cycles
system.cpu.dcache.WriteReq_mshr_miss_rate::.switch_cpus.data     0.195165                       # mshr miss rate for WriteReq accesses
system.cpu.dcache.WriteReq_mshr_miss_rate::total     0.195165                       # mshr miss rate for WriteReq accesses
system.cpu.dcache.WriteReq_avg_mshr_miss_latency::.switch_cpus.data 93514.282852                       # average WriteReq mshr miss latency
system.cpu.dcache.WriteReq_avg_mshr_miss_latency::total 93514.282852                       # average WriteReq mshr miss latency
system.cpu.dcache.tags.pwrStateResidencyTicks::UNDEFINED 926115471061000                       # Cumulative time (in ticks) in various power states
system.cpu.dcache.tags.tagsinuse             0.083842                       # Cycle average of tags in use
system.cpu.dcache.tags.total_refs            13457141                       # Total number of references to valid blocks.
system.cpu.dcache.tags.sampled_refs           1299160                       # Sample count of references to valid blocks.
system.cpu.dcache.tags.avg_refs             10.358340                       # Average number of references to valid blocks.
system.cpu.dcache.tags.warmup_cycle      926039603283000                       # Cycle when the warmup percentage was hit.
system.cpu.dcache.tags.occ_blocks::.cpu.data     0.000000                       # Average occupied blocks per requestor
system.cpu.dcache.tags.occ_blocks::.switch_cpus.data     0.083842                       # Average occupied blocks per requestor
system.cpu.dcache.tags.occ_percent::.cpu.data     0.000000                       # Average percentage of cache occupancy
system.cpu.dcache.tags.occ_percent::.switch_cpus.data     0.000082                       # Average percentage of cache occupancy
system.cpu.dcache.tags.occ_percent::total     0.000082                       # Average percentage of cache occupancy
system.cpu.dcache.tags.occ_task_id_blocks::1024         1024                       # Occupied blocks per task id
system.cpu.dcache.tags.age_task_id_blocks_1024::0          126                       # Occupied blocks per task id
system.cpu.dcache.tags.age_task_id_blocks_1024::1          718                       # Occupied blocks per task id
system.cpu.dcache.tags.age_task_id_blocks_1024::2          176                       # Occupied blocks per task id
system.cpu.dcache.tags.age_task_id_blocks_1024::3            4                       # Occupied blocks per task id
system.cpu.dcache.tags.occ_task_id_percent::1024            1                       # Percentage of cache occupancy per task id
system.cpu.dcache.tags.tag_accesses          28730738                       # Number of tag accesses
system.cpu.dcache.tags.data_accesses         28730738                       # Number of data accesses

---------- End Simulation Statistics   ----------
