
---------- Begin Simulation Statistics ----------
final_tick                               120508189275000                       # Number of ticks from beginning of simulation (restored from checkpoints and never reset)
host_inst_rate                                  53308                       # Simulator instruction rate (inst/s)
host_mem_usage                                 791532                       # Number of bytes of host memory used
host_op_rate                                    85628                       # Simulator op (including micro ops) rate (op/s)
host_seconds                                   187.59                       # Real time elapsed on the host
host_tick_rate                               14655463                       # Simulator tick rate (ticks/s)
sim_freq                                 1000000000000                       # Frequency of simulated ticks
sim_insts                                    10000012                       # Number of instructions simulated
sim_ops                                      16062752                       # Number of ops (including micro ops) simulated
sim_seconds                                  0.002749                       # Number of seconds simulated
sim_ticks                                  2749198750                       # Number of ticks simulated
system.cpu.committedInsts                          11                       # Number of instructions committed
system.cpu.committedOps                            16                       # Number of ops (including micro ops) committed
system.cpu.dtb.rdAccesses                           6                       # TLB accesses on read requests
system.cpu.dtb.rdMisses                             0                       # TLB misses on read requests
system.cpu.dtb.wrAccesses                           2                       # TLB accesses on write requests
system.cpu.dtb.wrMisses                             0                       # TLB misses on write requests
system.cpu.idle_fraction                            0                       # Percentage of idle cycles
system.cpu.itb.rdAccesses                           0                       # TLB accesses on read requests
system.cpu.itb.rdMisses                             0                       # TLB misses on read requests
system.cpu.itb.wrAccesses                          15                       # TLB accesses on write requests
system.cpu.itb.wrMisses                             0                       # TLB misses on write requests
system.cpu.not_idle_fraction                        1                       # Percentage of non-idle cycles
system.cpu.numCycles                               20                       # number of cpu cycles simulated
system.cpu.numWorkItemsCompleted                    0                       # number of work items this cpu completed
system.cpu.numWorkItemsStarted                      0                       # number of work items this cpu started
system.cpu.num_busy_cycles                         20                       # Number of busy cycles
system.cpu.num_cc_register_reads                   10                       # number of times the CC registers were read
system.cpu.num_cc_register_writes                  10                       # number of times the CC registers were written
system.cpu.num_conditional_control_insts            0                       # number of instructions that are conditional controls
system.cpu.num_fp_alu_accesses                      0                       # Number of float alu accesses
system.cpu.num_fp_insts                             0                       # number of float instructions
system.cpu.num_fp_register_reads                    0                       # number of times the floating registers were read
system.cpu.num_fp_register_writes                   0                       # number of times the floating registers were written
system.cpu.num_func_calls                           0                       # number of times a function call or return occured
system.cpu.num_idle_cycles                          0                       # Number of idle cycles
system.cpu.num_int_alu_accesses                    16                       # Number of integer alu accesses
system.cpu.num_int_insts                           16                       # number of integer instructions
system.cpu.num_int_register_reads                  42                       # number of times the integer registers were read
system.cpu.num_int_register_writes                 14                       # number of times the integer registers were written
system.cpu.num_load_insts                           6                       # Number of load instructions
system.cpu.num_mem_refs                             8                       # number of memory refs
system.cpu.num_store_insts                          2                       # Number of store instructions
system.cpu.num_vec_alu_accesses                     0                       # Number of vector alu accesses
system.cpu.num_vec_insts                            0                       # number of vector instructions
system.cpu.num_vec_register_reads                   0                       # number of times the vector registers were read
system.cpu.num_vec_register_writes                  0                       # number of times the vector registers were written
system.cpu.op_class::No_OpClass                     0      0.00%      0.00% # Class of executed instruction
system.cpu.op_class::IntAlu                         8     50.00%     50.00% # Class of executed instruction
system.cpu.op_class::IntMult                        0      0.00%     50.00% # Class of executed instruction
system.cpu.op_class::IntDiv                         0      0.00%     50.00% # Class of executed instruction
system.cpu.op_class::FloatAdd                       0      0.00%     50.00% # Class of executed instruction
system.cpu.op_class::FloatCmp                       0      0.00%     50.00% # Class of executed instruction
system.cpu.op_class::FloatCvt                       0      0.00%     50.00% # Class of executed instruction
system.cpu.op_class::FloatMult                      0      0.00%     50.00% # Class of executed instruction
system.cpu.op_class::FloatMultAcc                   0      0.00%     50.00% # Class of executed instruction
system.cpu.op_class::FloatDiv                       0      0.00%     50.00% # Class of executed instruction
system.cpu.op_class::FloatMisc                      0      0.00%     50.00% # Class of executed instruction
system.cpu.op_class::FloatSqrt                      0      0.00%     50.00% # Class of executed instruction
system.cpu.op_class::SimdAdd                        0      0.00%     50.00% # Class of executed instruction
system.cpu.op_class::SimdAddAcc                     0      0.00%     50.00% # Class of executed instruction
system.cpu.op_class::SimdAlu                        0      0.00%     50.00% # Class of executed instruction
system.cpu.op_class::SimdCmp                        0      0.00%     50.00% # Class of executed instruction
system.cpu.op_class::SimdCvt                        0      0.00%     50.00% # Class of executed instruction
system.cpu.op_class::SimdMisc                       0      0.00%     50.00% # Class of executed instruction
system.cpu.op_class::SimdMult                       0      0.00%     50.00% # Class of executed instruction
system.cpu.op_class::SimdMultAcc                    0      0.00%     50.00% # Class of executed instruction
system.cpu.op_class::SimdShift                      0      0.00%     50.00% # Class of executed instruction
system.cpu.op_class::SimdShiftAcc                   0      0.00%     50.00% # Class of executed instruction
system.cpu.op_class::SimdDiv                        0      0.00%     50.00% # Class of executed instruction
system.cpu.op_class::SimdSqrt                       0      0.00%     50.00% # Class of executed instruction
system.cpu.op_class::SimdFloatAdd                   0      0.00%     50.00% # Class of executed instruction
system.cpu.op_class::SimdFloatAlu                   0      0.00%     50.00% # Class of executed instruction
system.cpu.op_class::SimdFloatCmp                   0      0.00%     50.00% # Class of executed instruction
system.cpu.op_class::SimdFloatCvt                   0      0.00%     50.00% # Class of executed instruction
system.cpu.op_class::SimdFloatDiv                   0      0.00%     50.00% # Class of executed instruction
system.cpu.op_class::SimdFloatMisc                  0      0.00%     50.00% # Class of executed instruction
system.cpu.op_class::SimdFloatMult                  0      0.00%     50.00% # Class of executed instruction
system.cpu.op_class::SimdFloatMultAcc               0      0.00%     50.00% # Class of executed instruction
system.cpu.op_class::SimdFloatSqrt                  0      0.00%     50.00% # Class of executed instruction
system.cpu.op_class::SimdReduceAdd                  0      0.00%     50.00% # Class of executed instruction
system.cpu.op_class::SimdReduceAlu                  0      0.00%     50.00% # Class of executed instruction
system.cpu.op_class::SimdReduceCmp                  0      0.00%     50.00% # Class of executed instruction
system.cpu.op_class::SimdFloatReduceAdd             0      0.00%     50.00% # Class of executed instruction
system.cpu.op_class::SimdFloatReduceCmp             0      0.00%     50.00% # Class of executed instruction
system.cpu.op_class::SimdAes                        0      0.00%     50.00% # Class of executed instruction
system.cpu.op_class::SimdAesMix                     0      0.00%     50.00% # Class of executed instruction
system.cpu.op_class::SimdSha1Hash                   0      0.00%     50.00% # Class of executed instruction
system.cpu.op_class::SimdSha1Hash2                  0      0.00%     50.00% # Class of executed instruction
system.cpu.op_class::SimdSha256Hash                 0      0.00%     50.00% # Class of executed instruction
system.cpu.op_class::SimdSha256Hash2                0      0.00%     50.00% # Class of executed instruction
system.cpu.op_class::SimdShaSigma2                  0      0.00%     50.00% # Class of executed instruction
system.cpu.op_class::SimdShaSigma3                  0      0.00%     50.00% # Class of executed instruction
system.cpu.op_class::SimdPredAlu                    0      0.00%     50.00% # Class of executed instruction
system.cpu.op_class::MemRead                        6     37.50%     87.50% # Class of executed instruction
system.cpu.op_class::MemWrite                       2     12.50%    100.00% # Class of executed instruction
system.cpu.op_class::FloatMemRead                   0      0.00%    100.00% # Class of executed instruction
system.cpu.op_class::FloatMemWrite                  0      0.00%    100.00% # Class of executed instruction
system.cpu.op_class::IprAccess                      0      0.00%    100.00% # Class of executed instruction
system.cpu.op_class::InstPrefetch                   0      0.00%    100.00% # Class of executed instruction
system.cpu.op_class::total                         16                       # Class of executed instruction
system.cpu.workload.numSyscalls                     0                       # Number of system calls
system.membus.snoop_filter.hit_multi_requests            0                       # Number of requests hitting in the snoop filter with multiple (>1) holders of the requested data.
system.membus.snoop_filter.hit_multi_snoops            0                       # Number of snoops hitting in the snoop filter with multiple (>1) holders of the requested data.
system.membus.snoop_filter.hit_single_requests         3174                       # Number of requests hitting in the snoop filter with a single holder of the requested data.
system.membus.snoop_filter.hit_single_snoops            0                       # Number of snoops hitting in the snoop filter with a single holder of the requested data.
system.membus.snoop_filter.tot_requests          8457                       # Total number of requests made to the snoop filter.
system.membus.snoop_filter.tot_snoops               0                       # Total number of snoops made to the snoop filter.
system.switch_cpus.branchPred.BTBCorrect            0                       # Number of correct BTB predictions (this stat may not work properly.
system.switch_cpus.branchPred.BTBHitPct      0.000000                       # BTB Hit Percentage
system.switch_cpus.branchPred.BTBHits               0                       # Number of BTB hits
system.switch_cpus.branchPred.BTBLookups       628141                       # Number of BTB lookups
system.switch_cpus.branchPred.RASInCorrect            1                       # Number of incorrect RAS predictions.
system.switch_cpus.branchPred.condIncorrect        20143                       # Number of conditional branches incorrect
system.switch_cpus.branchPred.condPredicted       870279                       # Number of conditional branches predicted
system.switch_cpus.branchPred.indirectHits       503971                       # Number of indirect target hits.
system.switch_cpus.branchPred.indirectLookups       628141                       # Number of indirect predictor lookups.
system.switch_cpus.branchPred.indirectMisses       124170                       # Number of indirect misses.
system.switch_cpus.branchPred.lookups          953458                       # Number of BP lookups
system.switch_cpus.branchPred.usedRAS           40976                       # Number of times the RAS was used to get a target.
system.switch_cpus.branchPredindirectMispredicted         2524                       # Number of mispredicted indirect branches.
system.switch_cpus.cc_regfile_reads          14099456                       # number of cc regfile reads
system.switch_cpus.cc_regfile_writes          7124277                       # number of cc regfile writes
system.switch_cpus.commit.amos                      0                       # Number of atomic instructions committed
system.switch_cpus.commit.branchMispredicts        20166                       # The number of times a branch was mispredicted
system.switch_cpus.commit.branches             724275                       # Number of branches committed
system.switch_cpus.commit.bw_lim_events       1271637                       # number cycles where commit BW limit reached
system.switch_cpus.commit.commitSquashedInsts      1246414                       # The number of squashed insts skipped by commit
system.switch_cpus.commit.committedInsts     10000001                       # Number of instructions committed
system.switch_cpus.commit.committedOps       16062736                       # Number of ops (including micro ops) committed
system.switch_cpus.commit.committed_per_cycle::samples      5320436                       # Number of insts commited each cycle
system.switch_cpus.commit.committed_per_cycle::mean     3.019064                       # Number of insts commited each cycle
system.switch_cpus.commit.committed_per_cycle::stdev     3.124774                       # Number of insts commited each cycle
system.switch_cpus.commit.committed_per_cycle::underflows            0      0.00%      0.00% # Number of insts commited each cycle
system.switch_cpus.commit.committed_per_cycle::0      1052233     19.78%     19.78% # Number of insts commited each cycle
system.switch_cpus.commit.committed_per_cycle::1      1873989     35.22%     55.00% # Number of insts commited each cycle
system.switch_cpus.commit.committed_per_cycle::2       424573      7.98%     62.98% # Number of insts commited each cycle
system.switch_cpus.commit.committed_per_cycle::3       201780      3.79%     66.77% # Number of insts commited each cycle
system.switch_cpus.commit.committed_per_cycle::4       150117      2.82%     69.59% # Number of insts commited each cycle
system.switch_cpus.commit.committed_per_cycle::5       158387      2.98%     72.57% # Number of insts commited each cycle
system.switch_cpus.commit.committed_per_cycle::6       145278      2.73%     75.30% # Number of insts commited each cycle
system.switch_cpus.commit.committed_per_cycle::7        42442      0.80%     76.10% # Number of insts commited each cycle
system.switch_cpus.commit.committed_per_cycle::8      1271637     23.90%    100.00% # Number of insts commited each cycle
system.switch_cpus.commit.committed_per_cycle::overflows            0      0.00%    100.00% # Number of insts commited each cycle
system.switch_cpus.commit.committed_per_cycle::min_value            0                       # Number of insts commited each cycle
system.switch_cpus.commit.committed_per_cycle::max_value            8                       # Number of insts commited each cycle
system.switch_cpus.commit.committed_per_cycle::total      5320436                       # Number of insts commited each cycle
system.switch_cpus.commit.fp_insts            1436910                       # Number of committed floating point instructions.
system.switch_cpus.commit.function_calls        32801                       # Number of function calls committed.
system.switch_cpus.commit.int_insts          14834461                       # Number of committed integer instructions.
system.switch_cpus.commit.loads               3595534                       # Number of loads committed
system.switch_cpus.commit.membars                   0                       # Number of memory barriers committed
system.switch_cpus.commit.op_class_0::No_OpClass        95086      0.59%      0.59% # Class of committed instruction
system.switch_cpus.commit.op_class_0::IntAlu      9860253     61.39%     61.98% # Class of committed instruction
system.switch_cpus.commit.op_class_0::IntMult        86584      0.54%     62.52% # Class of committed instruction
system.switch_cpus.commit.op_class_0::IntDiv            0      0.00%     62.52% # Class of committed instruction
system.switch_cpus.commit.op_class_0::FloatAdd        32605      0.20%     62.72% # Class of committed instruction
system.switch_cpus.commit.op_class_0::FloatCmp            0      0.00%     62.72% # Class of committed instruction
system.switch_cpus.commit.op_class_0::FloatCvt            0      0.00%     62.72% # Class of committed instruction
system.switch_cpus.commit.op_class_0::FloatMult            0      0.00%     62.72% # Class of committed instruction
system.switch_cpus.commit.op_class_0::FloatMultAcc            0      0.00%     62.72% # Class of committed instruction
system.switch_cpus.commit.op_class_0::FloatDiv            0      0.00%     62.72% # Class of committed instruction
system.switch_cpus.commit.op_class_0::FloatMisc            0      0.00%     62.72% # Class of committed instruction
system.switch_cpus.commit.op_class_0::FloatSqrt            0      0.00%     62.72% # Class of committed instruction
system.switch_cpus.commit.op_class_0::SimdAdd        20986      0.13%     62.85% # Class of committed instruction
system.switch_cpus.commit.op_class_0::SimdAddAcc            0      0.00%     62.85% # Class of committed instruction
system.switch_cpus.commit.op_class_0::SimdAlu       329262      2.05%     64.90% # Class of committed instruction
system.switch_cpus.commit.op_class_0::SimdCmp            0      0.00%     64.90% # Class of committed instruction
system.switch_cpus.commit.op_class_0::SimdCvt       127366      0.79%     65.69% # Class of committed instruction
system.switch_cpus.commit.op_class_0::SimdMisc       161050      1.00%     66.70% # Class of committed instruction
system.switch_cpus.commit.op_class_0::SimdMult            0      0.00%     66.70% # Class of committed instruction
system.switch_cpus.commit.op_class_0::SimdMultAcc            0      0.00%     66.70% # Class of committed instruction
system.switch_cpus.commit.op_class_0::SimdShift        62958      0.39%     67.09% # Class of committed instruction
system.switch_cpus.commit.op_class_0::SimdShiftAcc            0      0.00%     67.09% # Class of committed instruction
system.switch_cpus.commit.op_class_0::SimdDiv            0      0.00%     67.09% # Class of committed instruction
system.switch_cpus.commit.op_class_0::SimdSqrt            0      0.00%     67.09% # Class of committed instruction
system.switch_cpus.commit.op_class_0::SimdFloatAdd       110449      0.69%     67.78% # Class of committed instruction
system.switch_cpus.commit.op_class_0::SimdFloatAlu            0      0.00%     67.78% # Class of committed instruction
system.switch_cpus.commit.op_class_0::SimdFloatCmp           31      0.00%     67.78% # Class of committed instruction
system.switch_cpus.commit.op_class_0::SimdFloatCvt       154150      0.96%     68.74% # Class of committed instruction
system.switch_cpus.commit.op_class_0::SimdFloatDiv        21677      0.13%     68.87% # Class of committed instruction
system.switch_cpus.commit.op_class_0::SimdFloatMisc            0      0.00%     68.87% # Class of committed instruction
system.switch_cpus.commit.op_class_0::SimdFloatMult        11191      0.07%     68.94% # Class of committed instruction
system.switch_cpus.commit.op_class_0::SimdFloatMultAcc            0      0.00%     68.94% # Class of committed instruction
system.switch_cpus.commit.op_class_0::SimdFloatSqrt            0      0.00%     68.94% # Class of committed instruction
system.switch_cpus.commit.op_class_0::SimdReduceAdd            0      0.00%     68.94% # Class of committed instruction
system.switch_cpus.commit.op_class_0::SimdReduceAlu            0      0.00%     68.94% # Class of committed instruction
system.switch_cpus.commit.op_class_0::SimdReduceCmp            0      0.00%     68.94% # Class of committed instruction
system.switch_cpus.commit.op_class_0::SimdFloatReduceAdd            0      0.00%     68.94% # Class of committed instruction
system.switch_cpus.commit.op_class_0::SimdFloatReduceCmp            0      0.00%     68.94% # Class of committed instruction
system.switch_cpus.commit.op_class_0::SimdAes            0      0.00%     68.94% # Class of committed instruction
system.switch_cpus.commit.op_class_0::SimdAesMix            0      0.00%     68.94% # Class of committed instruction
system.switch_cpus.commit.op_class_0::SimdSha1Hash            0      0.00%     68.94% # Class of committed instruction
system.switch_cpus.commit.op_class_0::SimdSha1Hash2            0      0.00%     68.94% # Class of committed instruction
system.switch_cpus.commit.op_class_0::SimdSha256Hash            0      0.00%     68.94% # Class of committed instruction
system.switch_cpus.commit.op_class_0::SimdSha256Hash2            0      0.00%     68.94% # Class of committed instruction
system.switch_cpus.commit.op_class_0::SimdShaSigma2            0      0.00%     68.94% # Class of committed instruction
system.switch_cpus.commit.op_class_0::SimdShaSigma3            0      0.00%     68.94% # Class of committed instruction
system.switch_cpus.commit.op_class_0::SimdPredAlu            0      0.00%     68.94% # Class of committed instruction
system.switch_cpus.commit.op_class_0::MemRead      3367523     20.96%     89.90% # Class of committed instruction
system.switch_cpus.commit.op_class_0::MemWrite      1393220      8.67%     98.58% # Class of committed instruction
system.switch_cpus.commit.op_class_0::FloatMemRead       228011      1.42%    100.00% # Class of committed instruction
system.switch_cpus.commit.op_class_0::FloatMemWrite          334      0.00%    100.00% # Class of committed instruction
system.switch_cpus.commit.op_class_0::IprAccess            0      0.00%    100.00% # Class of committed instruction
system.switch_cpus.commit.op_class_0::InstPrefetch            0      0.00%    100.00% # Class of committed instruction
system.switch_cpus.commit.op_class_0::total     16062736                       # Class of committed instruction
system.switch_cpus.commit.refs                4989088                       # Number of memory references committed
system.switch_cpus.commit.swp_count                 0                       # Number of s/w prefetches committed
system.switch_cpus.commit.vec_insts                 0                       # Number of committed Vector instructions.
system.switch_cpus.committedInsts            10000001                       # Number of Instructions Simulated
system.switch_cpus.committedOps              16062736                       # Number of Ops (including micro ops) Simulated
system.switch_cpus.cpi                       0.549838                       # CPI: Cycles Per Instruction
system.switch_cpus.cpi_total                 0.549838                       # CPI: Total CPI of All Threads
system.switch_cpus.decode.BlockedCycles       2582146                       # Number of cycles decode is blocked
system.switch_cpus.decode.DecodedInsts       17656686                       # Number of instructions handled by decode
system.switch_cpus.decode.IdleCycles           555178                       # Number of cycles decode is idle
system.switch_cpus.decode.RunCycles           1569837                       # Number of cycles decode is running
system.switch_cpus.decode.SquashCycles          20391                       # Number of cycles decode is squashing
system.switch_cpus.decode.UnblockCycles        759583                       # Number of cycles decode is unblocking
system.switch_cpus.dtb.rdAccesses             3683524                       # TLB accesses on read requests
system.switch_cpus.dtb.rdMisses                    61                       # TLB misses on read requests
system.switch_cpus.dtb.wrAccesses             1407008                       # TLB accesses on write requests
system.switch_cpus.dtb.wrMisses                    97                       # TLB misses on write requests
system.switch_cpus.fetch.Branches              953458                       # Number of branches that fetch encountered
system.switch_cpus.fetch.CacheLines            853473                       # Number of cache lines fetched
system.switch_cpus.fetch.Cycles               4597964                       # Number of cycles fetch has run and was not squashing or blocked
system.switch_cpus.fetch.IcacheSquashes          3802                       # Number of outstanding Icache misses that were squashed
system.switch_cpus.fetch.Insts               10959353                       # Number of instructions fetch has processed
system.switch_cpus.fetch.MiscStallCycles           23                       # Number of cycles fetch has spent waiting on interrupts, or bad addresses, or out of MSHRs
system.switch_cpus.fetch.PendingTrapStallCycles          144                       # Number of stall cycles due to pending traps
system.switch_cpus.fetch.SquashCycles           40782                       # Number of cycles fetch has spent squashing
system.switch_cpus.fetch.branchRate          0.173407                       # Number of branch fetches per cycle
system.switch_cpus.fetch.icacheStallCycles       868618                       # Number of cycles fetch is stalled on an Icache miss
system.switch_cpus.fetch.predictedBranches       544947                       # Number of branches that fetch has predicted taken
system.switch_cpus.fetch.rate                1.993198                       # Number of inst fetches per cycle
system.switch_cpus.fetch.rateDist::samples      5487140                       # Number of instructions fetched each cycle (Total)
system.switch_cpus.fetch.rateDist::mean      3.261351                       # Number of instructions fetched each cycle (Total)
system.switch_cpus.fetch.rateDist::stdev     3.545331                       # Number of instructions fetched each cycle (Total)
system.switch_cpus.fetch.rateDist::underflows            0      0.00%      0.00% # Number of instructions fetched each cycle (Total)
system.switch_cpus.fetch.rateDist::0          2676465     48.78%     48.78% # Number of instructions fetched each cycle (Total)
system.switch_cpus.fetch.rateDist::1           135875      2.48%     51.25% # Number of instructions fetched each cycle (Total)
system.switch_cpus.fetch.rateDist::2           102791      1.87%     53.13% # Number of instructions fetched each cycle (Total)
system.switch_cpus.fetch.rateDist::3           146821      2.68%     55.80% # Number of instructions fetched each cycle (Total)
system.switch_cpus.fetch.rateDist::4           180848      3.30%     59.10% # Number of instructions fetched each cycle (Total)
system.switch_cpus.fetch.rateDist::5           343181      6.25%     65.35% # Number of instructions fetched each cycle (Total)
system.switch_cpus.fetch.rateDist::6           171340      3.12%     68.48% # Number of instructions fetched each cycle (Total)
system.switch_cpus.fetch.rateDist::7           192321      3.50%     71.98% # Number of instructions fetched each cycle (Total)
system.switch_cpus.fetch.rateDist::8          1537498     28.02%    100.00% # Number of instructions fetched each cycle (Total)
system.switch_cpus.fetch.rateDist::overflows            0      0.00%    100.00% # Number of instructions fetched each cycle (Total)
system.switch_cpus.fetch.rateDist::min_value            0                       # Number of instructions fetched each cycle (Total)
system.switch_cpus.fetch.rateDist::max_value            8                       # Number of instructions fetched each cycle (Total)
system.switch_cpus.fetch.rateDist::total      5487140                       # Number of instructions fetched each cycle (Total)
system.switch_cpus.fp_regfile_reads           2769208                       # number of floating regfile reads
system.switch_cpus.fp_regfile_writes          1378785                       # number of floating regfile writes
system.switch_cpus.idleCycles                   11237                       # Total number of cycles that the CPU has spent unscheduled due to idling
system.switch_cpus.iew.branchMispredicts        33954                       # Number of branch mispredicts detected at execute
system.switch_cpus.iew.exec_branches           789380                       # Number of branches executed
system.switch_cpus.iew.exec_nop                     0                       # number of nop insts executed
system.switch_cpus.iew.exec_rate             3.055577                       # Inst execution rate
system.switch_cpus.iew.exec_refs              5084789                       # number of memory reference insts executed
system.switch_cpus.iew.exec_stores            1407008                       # Number of stores executed
system.switch_cpus.iew.exec_swp                     0                       # number of swp insts executed
system.switch_cpus.iew.iewBlockCycles          156641                       # Number of cycles IEW is blocking
system.switch_cpus.iew.iewDispLoadInsts       3710650                       # Number of dispatched load instructions
system.switch_cpus.iew.iewDispNonSpecInsts            1                       # Number of dispatched non-speculative instructions
system.switch_cpus.iew.iewDispSquashedInsts          433                       # Number of squashed instructions skipped by dispatch
system.switch_cpus.iew.iewDispStoreInsts      1423187                       # Number of dispatched store instructions
system.switch_cpus.iew.iewDispatchedInsts     17309218                       # Number of instructions dispatched to IQ
system.switch_cpus.iew.iewExecLoadInsts       3677781                       # Number of load instructions executed
system.switch_cpus.iew.iewExecSquashedInsts        33030                       # Number of squashed instructions skipped in execute
system.switch_cpus.iew.iewExecutedInsts      16800715                       # Number of executed instructions
system.switch_cpus.iew.iewIQFullEvents            286                       # Number of times the IQ has become full, causing a stall
system.switch_cpus.iew.iewIdleCycles                0                       # Number of cycles IEW is idle
system.switch_cpus.iew.iewLSQFullEvents         66749                       # Number of times the LSQ has become full, causing a stall
system.switch_cpus.iew.iewSquashCycles          20391                       # Number of cycles IEW is squashing
system.switch_cpus.iew.iewUnblockCycles         67173                       # Number of cycles IEW is unblocking
system.switch_cpus.iew.lsq.thread0.blockedLoads            0                       # Number of blocked loads due to partial load-store forwarding
system.switch_cpus.iew.lsq.thread0.cacheBlocked          171                       # Number of times an access to memory failed due to the cache being blocked
system.switch_cpus.iew.lsq.thread0.forwLoads       381428                       # Number of loads that had data forwarded from stores
system.switch_cpus.iew.lsq.thread0.ignoredResponses           49                       # Number of memory responses ignored because the instruction is squashed
system.switch_cpus.iew.lsq.thread0.invAddrLoads            0                       # Number of loads ignored due to an invalid address
system.switch_cpus.iew.lsq.thread0.invAddrSwpfs            0                       # Number of software prefetches ignored due to an invalid address
system.switch_cpus.iew.lsq.thread0.memOrderViolation          260                       # Number of memory ordering violations
system.switch_cpus.iew.lsq.thread0.rescheduledLoads            0                       # Number of loads that were rescheduled
system.switch_cpus.iew.lsq.thread0.squashedLoads       115091                       # Number of loads squashed
system.switch_cpus.iew.lsq.thread0.squashedStores        29623                       # Number of stores squashed
system.switch_cpus.iew.memOrderViolationEvents          260                       # Number of memory order violations
system.switch_cpus.iew.predictedNotTakenIncorrect        28706                       # Number of branches that were predicted not taken incorrectly
system.switch_cpus.iew.predictedTakenIncorrect         5248                       # Number of branches that were predicted taken incorrectly
system.switch_cpus.iew.wb_consumers          26989018                       # num instructions consuming a value
system.switch_cpus.iew.wb_count              16783878                       # cumulative count of insts written-back
system.switch_cpus.iew.wb_fanout             0.498507                       # average fanout of values written-back
system.switch_cpus.iew.wb_producers          13454207                       # num instructions producing a value
system.switch_cpus.iew.wb_rate               3.052515                       # insts written-back per cycle
system.switch_cpus.iew.wb_sent               16790816                       # cumulative count of insts sent to commit
system.switch_cpus.int_regfile_reads         29022436                       # number of integer regfile reads
system.switch_cpus.int_regfile_writes        13105368                       # number of integer regfile writes
system.switch_cpus.ipc                       1.818719                       # IPC: Instructions Per Cycle
system.switch_cpus.ipc_total                 1.818719                       # IPC: Total IPC of All Threads
system.switch_cpus.iq.FU_type_0::No_OpClass       100109      0.59%      0.59% # Type of FU issued
system.switch_cpus.iq.FU_type_0::IntAlu      10435649     61.99%     62.59% # Type of FU issued
system.switch_cpus.iq.FU_type_0::IntMult        88210      0.52%     63.11% # Type of FU issued
system.switch_cpus.iq.FU_type_0::IntDiv             0      0.00%     63.11% # Type of FU issued
system.switch_cpus.iq.FU_type_0::FloatAdd        35150      0.21%     63.32% # Type of FU issued
system.switch_cpus.iq.FU_type_0::FloatCmp            0      0.00%     63.32% # Type of FU issued
system.switch_cpus.iq.FU_type_0::FloatCvt            0      0.00%     63.32% # Type of FU issued
system.switch_cpus.iq.FU_type_0::FloatMult            0      0.00%     63.32% # Type of FU issued
system.switch_cpus.iq.FU_type_0::FloatMultAcc            0      0.00%     63.32% # Type of FU issued
system.switch_cpus.iq.FU_type_0::FloatDiv            0      0.00%     63.32% # Type of FU issued
system.switch_cpus.iq.FU_type_0::FloatMisc            0      0.00%     63.32% # Type of FU issued
system.switch_cpus.iq.FU_type_0::FloatSqrt            0      0.00%     63.32% # Type of FU issued
system.switch_cpus.iq.FU_type_0::SimdAdd        20986      0.12%     63.44% # Type of FU issued
system.switch_cpus.iq.FU_type_0::SimdAddAcc            0      0.00%     63.44% # Type of FU issued
system.switch_cpus.iq.FU_type_0::SimdAlu       343110      2.04%     65.48% # Type of FU issued
system.switch_cpus.iq.FU_type_0::SimdCmp            0      0.00%     65.48% # Type of FU issued
system.switch_cpus.iq.FU_type_0::SimdCvt       129952      0.77%     66.25% # Type of FU issued
system.switch_cpus.iq.FU_type_0::SimdMisc       163077      0.97%     67.22% # Type of FU issued
system.switch_cpus.iq.FU_type_0::SimdMult            0      0.00%     67.22% # Type of FU issued
system.switch_cpus.iq.FU_type_0::SimdMultAcc            0      0.00%     67.22% # Type of FU issued
system.switch_cpus.iq.FU_type_0::SimdShift        63044      0.37%     67.60% # Type of FU issued
system.switch_cpus.iq.FU_type_0::SimdShiftAcc            0      0.00%     67.60% # Type of FU issued
system.switch_cpus.iq.FU_type_0::SimdDiv            0      0.00%     67.60% # Type of FU issued
system.switch_cpus.iq.FU_type_0::SimdSqrt            0      0.00%     67.60% # Type of FU issued
system.switch_cpus.iq.FU_type_0::SimdFloatAdd       142385      0.85%     68.44% # Type of FU issued
system.switch_cpus.iq.FU_type_0::SimdFloatAlu            0      0.00%     68.44% # Type of FU issued
system.switch_cpus.iq.FU_type_0::SimdFloatCmp           49      0.00%     68.44% # Type of FU issued
system.switch_cpus.iq.FU_type_0::SimdFloatCvt       180305      1.07%     69.52% # Type of FU issued
system.switch_cpus.iq.FU_type_0::SimdFloatDiv        23618      0.14%     69.66% # Type of FU issued
system.switch_cpus.iq.FU_type_0::SimdFloatMisc            0      0.00%     69.66% # Type of FU issued
system.switch_cpus.iq.FU_type_0::SimdFloatMult        13225      0.08%     69.73% # Type of FU issued
system.switch_cpus.iq.FU_type_0::SimdFloatMultAcc            0      0.00%     69.73% # Type of FU issued
system.switch_cpus.iq.FU_type_0::SimdFloatSqrt            0      0.00%     69.73% # Type of FU issued
system.switch_cpus.iq.FU_type_0::SimdReduceAdd            0      0.00%     69.73% # Type of FU issued
system.switch_cpus.iq.FU_type_0::SimdReduceAlu            0      0.00%     69.73% # Type of FU issued
system.switch_cpus.iq.FU_type_0::SimdReduceCmp            0      0.00%     69.73% # Type of FU issued
system.switch_cpus.iq.FU_type_0::SimdFloatReduceAdd            0      0.00%     69.73% # Type of FU issued
system.switch_cpus.iq.FU_type_0::SimdFloatReduceCmp            0      0.00%     69.73% # Type of FU issued
system.switch_cpus.iq.FU_type_0::SimdAes            0      0.00%     69.73% # Type of FU issued
system.switch_cpus.iq.FU_type_0::SimdAesMix            0      0.00%     69.73% # Type of FU issued
system.switch_cpus.iq.FU_type_0::SimdSha1Hash            0      0.00%     69.73% # Type of FU issued
system.switch_cpus.iq.FU_type_0::SimdSha1Hash2            0      0.00%     69.73% # Type of FU issued
system.switch_cpus.iq.FU_type_0::SimdSha256Hash            0      0.00%     69.73% # Type of FU issued
system.switch_cpus.iq.FU_type_0::SimdSha256Hash2            0      0.00%     69.73% # Type of FU issued
system.switch_cpus.iq.FU_type_0::SimdShaSigma2            0      0.00%     69.73% # Type of FU issued
system.switch_cpus.iq.FU_type_0::SimdShaSigma3            0      0.00%     69.73% # Type of FU issued
system.switch_cpus.iq.FU_type_0::SimdPredAlu            0      0.00%     69.73% # Type of FU issued
system.switch_cpus.iq.FU_type_0::MemRead      3402182     20.21%     89.94% # Type of FU issued
system.switch_cpus.iq.FU_type_0::MemWrite      1408422      8.37%     98.31% # Type of FU issued
system.switch_cpus.iq.FU_type_0::FloatMemRead       283811      1.69%    100.00% # Type of FU issued
system.switch_cpus.iq.FU_type_0::FloatMemWrite          463      0.00%    100.00% # Type of FU issued
system.switch_cpus.iq.FU_type_0::IprAccess            0      0.00%    100.00% # Type of FU issued
system.switch_cpus.iq.FU_type_0::InstPrefetch            0      0.00%    100.00% # Type of FU issued
system.switch_cpus.iq.FU_type_0::total       16833747                       # Type of FU issued
system.switch_cpus.iq.fp_alu_accesses         1600097                       # Number of floating point alu accesses
system.switch_cpus.iq.fp_inst_queue_reads      3178538                       # Number of floating instruction queue reads
system.switch_cpus.iq.fp_inst_queue_wakeup_accesses      1560792                       # Number of floating instruction queue wakeup accesses
system.switch_cpus.iq.fp_inst_queue_writes      1913894                       # Number of floating instruction queue writes
system.switch_cpus.iq.fu_busy_cnt              199033                       # FU busy when requested
system.switch_cpus.iq.fu_busy_rate           0.011823                       # FU busy rate (busy events/executed inst)
system.switch_cpus.iq.fu_full::No_OpClass            0      0.00%      0.00% # attempts to use FU when none available
system.switch_cpus.iq.fu_full::IntAlu          121807     61.20%     61.20% # attempts to use FU when none available
system.switch_cpus.iq.fu_full::IntMult              0      0.00%     61.20% # attempts to use FU when none available
system.switch_cpus.iq.fu_full::IntDiv               0      0.00%     61.20% # attempts to use FU when none available
system.switch_cpus.iq.fu_full::FloatAdd             0      0.00%     61.20% # attempts to use FU when none available
system.switch_cpus.iq.fu_full::FloatCmp             0      0.00%     61.20% # attempts to use FU when none available
system.switch_cpus.iq.fu_full::FloatCvt             0      0.00%     61.20% # attempts to use FU when none available
system.switch_cpus.iq.fu_full::FloatMult            0      0.00%     61.20% # attempts to use FU when none available
system.switch_cpus.iq.fu_full::FloatMultAcc            0      0.00%     61.20% # attempts to use FU when none available
system.switch_cpus.iq.fu_full::FloatDiv             0      0.00%     61.20% # attempts to use FU when none available
system.switch_cpus.iq.fu_full::FloatMisc            0      0.00%     61.20% # attempts to use FU when none available
system.switch_cpus.iq.fu_full::FloatSqrt            0      0.00%     61.20% # attempts to use FU when none available
system.switch_cpus.iq.fu_full::SimdAdd              0      0.00%     61.20% # attempts to use FU when none available
system.switch_cpus.iq.fu_full::SimdAddAcc            0      0.00%     61.20% # attempts to use FU when none available
system.switch_cpus.iq.fu_full::SimdAlu            128      0.06%     61.26% # attempts to use FU when none available
system.switch_cpus.iq.fu_full::SimdCmp              0      0.00%     61.26% # attempts to use FU when none available
system.switch_cpus.iq.fu_full::SimdCvt           3425      1.72%     62.98% # attempts to use FU when none available
system.switch_cpus.iq.fu_full::SimdMisc            22      0.01%     63.00% # attempts to use FU when none available
system.switch_cpus.iq.fu_full::SimdMult             0      0.00%     63.00% # attempts to use FU when none available
system.switch_cpus.iq.fu_full::SimdMultAcc            0      0.00%     63.00% # attempts to use FU when none available
system.switch_cpus.iq.fu_full::SimdShift            2      0.00%     63.00% # attempts to use FU when none available
system.switch_cpus.iq.fu_full::SimdShiftAcc            0      0.00%     63.00% # attempts to use FU when none available
system.switch_cpus.iq.fu_full::SimdDiv              0      0.00%     63.00% # attempts to use FU when none available
system.switch_cpus.iq.fu_full::SimdSqrt             0      0.00%     63.00% # attempts to use FU when none available
system.switch_cpus.iq.fu_full::SimdFloatAdd         1955      0.98%     63.98% # attempts to use FU when none available
system.switch_cpus.iq.fu_full::SimdFloatAlu            0      0.00%     63.98% # attempts to use FU when none available
system.switch_cpus.iq.fu_full::SimdFloatCmp            0      0.00%     63.98% # attempts to use FU when none available
system.switch_cpus.iq.fu_full::SimdFloatCvt        10113      5.08%     69.06% # attempts to use FU when none available
system.switch_cpus.iq.fu_full::SimdFloatDiv            0      0.00%     69.06% # attempts to use FU when none available
system.switch_cpus.iq.fu_full::SimdFloatMisc            0      0.00%     69.06% # attempts to use FU when none available
system.switch_cpus.iq.fu_full::SimdFloatMult            0      0.00%     69.06% # attempts to use FU when none available
system.switch_cpus.iq.fu_full::SimdFloatMultAcc            0      0.00%     69.06% # attempts to use FU when none available
system.switch_cpus.iq.fu_full::SimdFloatSqrt            0      0.00%     69.06% # attempts to use FU when none available
system.switch_cpus.iq.fu_full::SimdReduceAdd            0      0.00%     69.06% # attempts to use FU when none available
system.switch_cpus.iq.fu_full::SimdReduceAlu            0      0.00%     69.06% # attempts to use FU when none available
system.switch_cpus.iq.fu_full::SimdReduceCmp            0      0.00%     69.06% # attempts to use FU when none available
system.switch_cpus.iq.fu_full::SimdFloatReduceAdd            0      0.00%     69.06% # attempts to use FU when none available
system.switch_cpus.iq.fu_full::SimdFloatReduceCmp            0      0.00%     69.06% # attempts to use FU when none available
system.switch_cpus.iq.fu_full::SimdAes              0      0.00%     69.06% # attempts to use FU when none available
system.switch_cpus.iq.fu_full::SimdAesMix            0      0.00%     69.06% # attempts to use FU when none available
system.switch_cpus.iq.fu_full::SimdSha1Hash            0      0.00%     69.06% # attempts to use FU when none available
system.switch_cpus.iq.fu_full::SimdSha1Hash2            0      0.00%     69.06% # attempts to use FU when none available
system.switch_cpus.iq.fu_full::SimdSha256Hash            0      0.00%     69.06% # attempts to use FU when none available
system.switch_cpus.iq.fu_full::SimdSha256Hash2            0      0.00%     69.06% # attempts to use FU when none available
system.switch_cpus.iq.fu_full::SimdShaSigma2            0      0.00%     69.06% # attempts to use FU when none available
system.switch_cpus.iq.fu_full::SimdShaSigma3            0      0.00%     69.06% # attempts to use FU when none available
system.switch_cpus.iq.fu_full::SimdPredAlu            0      0.00%     69.06% # attempts to use FU when none available
system.switch_cpus.iq.fu_full::MemRead          54482     27.37%     96.43% # attempts to use FU when none available
system.switch_cpus.iq.fu_full::MemWrite           454      0.23%     96.66% # attempts to use FU when none available
system.switch_cpus.iq.fu_full::FloatMemRead         6645      3.34%    100.00% # attempts to use FU when none available
system.switch_cpus.iq.fu_full::FloatMemWrite            0      0.00%    100.00% # attempts to use FU when none available
system.switch_cpus.iq.fu_full::IprAccess            0      0.00%    100.00% # attempts to use FU when none available
system.switch_cpus.iq.fu_full::InstPrefetch            0      0.00%    100.00% # attempts to use FU when none available
system.switch_cpus.iq.int_alu_accesses       15332574                       # Number of integer alu accesses
system.switch_cpus.iq.int_inst_queue_reads     36253097                       # Number of integer instruction queue reads
system.switch_cpus.iq.int_inst_queue_wakeup_accesses     15223086                       # Number of integer instruction queue wakeup accesses
system.switch_cpus.iq.int_inst_queue_writes     16641977                       # Number of integer instruction queue writes
system.switch_cpus.iq.iqInstsAdded           17309209                       # Number of instructions added to the IQ (excludes non-spec)
system.switch_cpus.iq.iqInstsIssued          16833747                       # Number of instructions issued
system.switch_cpus.iq.iqNonSpecInstsAdded            9                       # Number of non-speculative instructions added to the IQ
system.switch_cpus.iq.iqSquashedInstsExamined      1246397                       # Number of squashed instructions iterated over during squash; mainly for profiling
system.switch_cpus.iq.iqSquashedInstsIssued        77970                       # Number of squashed instructions issued
system.switch_cpus.iq.iqSquashedNonSpecRemoved            9                       # Number of squashed non-spec instructions that were removed
system.switch_cpus.iq.iqSquashedOperandsExamined      1769329                       # Number of squashed operands that are examined and possibly removed from graph
system.switch_cpus.iq.issued_per_cycle::samples      5487140                       # Number of insts issued each cycle
system.switch_cpus.iq.issued_per_cycle::mean     3.067854                       # Number of insts issued each cycle
system.switch_cpus.iq.issued_per_cycle::stdev     2.283664                       # Number of insts issued each cycle
system.switch_cpus.iq.issued_per_cycle::underflows            0      0.00%      0.00% # Number of insts issued each cycle
system.switch_cpus.iq.issued_per_cycle::0       924928     16.86%     16.86% # Number of insts issued each cycle
system.switch_cpus.iq.issued_per_cycle::1       627098     11.43%     28.28% # Number of insts issued each cycle
system.switch_cpus.iq.issued_per_cycle::2       910336     16.59%     44.88% # Number of insts issued each cycle
system.switch_cpus.iq.issued_per_cycle::3       824893     15.03%     59.91% # Number of insts issued each cycle
system.switch_cpus.iq.issued_per_cycle::4       728711     13.28%     73.19% # Number of insts issued each cycle
system.switch_cpus.iq.issued_per_cycle::5       609554     11.11%     84.30% # Number of insts issued each cycle
system.switch_cpus.iq.issued_per_cycle::6       344664      6.28%     90.58% # Number of insts issued each cycle
system.switch_cpus.iq.issued_per_cycle::7       254948      4.65%     95.23% # Number of insts issued each cycle
system.switch_cpus.iq.issued_per_cycle::8       262008      4.77%    100.00% # Number of insts issued each cycle
system.switch_cpus.iq.issued_per_cycle::overflows            0      0.00%    100.00% # Number of insts issued each cycle
system.switch_cpus.iq.issued_per_cycle::min_value            0                       # Number of insts issued each cycle
system.switch_cpus.iq.issued_per_cycle::max_value            8                       # Number of insts issued each cycle
system.switch_cpus.iq.issued_per_cycle::total      5487140                       # Number of insts issued each cycle
system.switch_cpus.iq.rate                   3.061585                       # Inst issue rate
system.switch_cpus.iq.vec_alu_accesses              0                       # Number of vector alu accesses
system.switch_cpus.iq.vec_inst_queue_reads            0                       # Number of vector instruction queue reads
system.switch_cpus.iq.vec_inst_queue_wakeup_accesses            0                       # Number of vector instruction queue wakeup accesses
system.switch_cpus.iq.vec_inst_queue_writes            0                       # Number of vector instruction queue writes
system.switch_cpus.itb.rdAccesses                   0                       # TLB accesses on read requests
system.switch_cpus.itb.rdMisses                     0                       # TLB misses on read requests
system.switch_cpus.itb.wrAccesses              853497                       # TLB accesses on write requests
system.switch_cpus.itb.wrMisses                    39                       # TLB misses on write requests
system.switch_cpus.memDep0.conflictingLoads       389149                       # Number of conflicting loads.
system.switch_cpus.memDep0.conflictingStores       323355                       # Number of conflicting stores.
system.switch_cpus.memDep0.insertedLoads      3710650                       # Number of loads inserted to the mem dependence unit.
system.switch_cpus.memDep0.insertedStores      1423187                       # Number of stores inserted to the mem dependence unit.
system.switch_cpus.misc_regfile_reads         6736001                       # number of misc regfile reads
system.switch_cpus.misc_regfile_writes              1                       # number of misc regfile writes
system.switch_cpus.numCycles                  5498377                       # number of cpu cycles simulated
system.switch_cpus.numWorkItemsCompleted            0                       # number of work items this cpu completed
system.switch_cpus.numWorkItemsStarted              0                       # number of work items this cpu started
system.switch_cpus.rename.BlockCycles          290625                       # Number of cycles rename is blocking
system.switch_cpus.rename.CommittedMaps      20752203                       # Number of HB maps that are committed
system.switch_cpus.rename.IQFullEvents         143325                       # Number of times rename has blocked due to IQ full
system.switch_cpus.rename.IdleCycles           869652                       # Number of cycles rename is idle
system.switch_cpus.rename.LQFullEvents         576912                       # Number of times rename has blocked due to LQ full
system.switch_cpus.rename.ROBFullEvents          3085                       # Number of times rename has blocked due to ROB full
system.switch_cpus.rename.RenameLookups      54978459                       # Number of register rename lookups that rename has made
system.switch_cpus.rename.RenamedInsts       17540514                       # Number of instructions processed by rename
system.switch_cpus.rename.RenamedOperands     22512025                       # Number of destination operands rename has renamed
system.switch_cpus.rename.RunCycles           2003723                       # Number of cycles rename is running
system.switch_cpus.rename.SQFullEvents        1333716                       # Number of times rename has blocked due to SQ full
system.switch_cpus.rename.SquashCycles          20391                       # Number of cycles rename is squashing
system.switch_cpus.rename.UnblockCycles       2302744                       # Number of cycles rename is unblocking
system.switch_cpus.rename.UndoneMaps          1759683                       # Number of HB maps that are undone due to squashing
system.switch_cpus.rename.fp_rename_lookups      3038560                       # Number of floating rename lookups
system.switch_cpus.rename.int_rename_lookups     30035066                       # Number of integer rename lookups
system.switch_cpus.rename.serializeStallCycles            0                       # count of cycles rename stalled for serializing inst
system.switch_cpus.rename.serializingInsts            0                       # count of serializing insts renamed
system.switch_cpus.rename.skidInsts           4116785                       # count of insts added to the skid buffer
system.switch_cpus.rename.tempSerializingInsts            0                       # count of temporary serializing insts renamed
system.switch_cpus.rob.rob_reads             21357949                       # The number of ROB reads
system.switch_cpus.rob.rob_writes            34785716                       # The number of ROB writes
system.switch_cpus.timesIdled                     163                       # Number of times that the entire CPU went into an idle state and unscheduled itself
system.tol2bus.snoop_filter.hit_multi_requests            0                       # Number of requests hitting in the snoop filter with multiple (>1) holders of the requested data.
system.tol2bus.snoop_filter.hit_multi_snoops            0                       # Number of snoops hitting in the snoop filter with multiple (>1) holders of the requested data.
system.tol2bus.snoop_filter.hit_single_requests        24490                       # Number of requests hitting in the snoop filter with a single holder of the requested data.
system.tol2bus.snoop_filter.hit_single_snoops         2418                       # Number of snoops hitting in the snoop filter with a single holder of the requested data.
system.tol2bus.snoop_filter.tot_requests        50125                       # Total number of requests made to the snoop filter.
system.tol2bus.snoop_filter.tot_snoops           2418                       # Total number of snoops made to the snoop filter.
system.membus.pwrStateResidencyTicks::UNDEFINED 120508189275000                       # Cumulative time (in ticks) in various power states
system.membus.trans_dist::ReadResp               1832                       # Transaction distribution
system.membus.trans_dist::WritebackDirty         1983                       # Transaction distribution
system.membus.trans_dist::CleanEvict             1191                       # Transaction distribution
system.membus.trans_dist::ReadExReq              3451                       # Transaction distribution
system.membus.trans_dist::ReadExResp             3451                       # Transaction distribution
system.membus.trans_dist::ReadSharedReq          1832                       # Transaction distribution
system.membus.pkt_count_system.l2.mem_side::system.mem_ctrls.port        13740                       # Packet count per connected master and slave (bytes)
system.membus.pkt_count_system.l2.mem_side::total        13740                       # Packet count per connected master and slave (bytes)
system.membus.pkt_count::total                  13740                       # Packet count per connected master and slave (bytes)
system.membus.pkt_size_system.l2.mem_side::system.mem_ctrls.port       465024                       # Cumulative packet size per connected master and slave (bytes)
system.membus.pkt_size_system.l2.mem_side::total       465024                       # Cumulative packet size per connected master and slave (bytes)
system.membus.pkt_size::total                  465024                       # Cumulative packet size per connected master and slave (bytes)
system.membus.snoops                                0                       # Total snoops (count)
system.membus.snoopTraffic                          0                       # Total snoop traffic (bytes)
system.membus.snoop_fanout::samples              5283                       # Request fanout histogram
system.membus.snoop_fanout::mean                    0                       # Request fanout histogram
system.membus.snoop_fanout::stdev                   0                       # Request fanout histogram
system.membus.snoop_fanout::underflows              0      0.00%      0.00% # Request fanout histogram
system.membus.snoop_fanout::0                    5283    100.00%    100.00% # Request fanout histogram
system.membus.snoop_fanout::1                       0      0.00%    100.00% # Request fanout histogram
system.membus.snoop_fanout::overflows               0      0.00%    100.00% # Request fanout histogram
system.membus.snoop_fanout::min_value               0                       # Request fanout histogram
system.membus.snoop_fanout::max_value               0                       # Request fanout histogram
system.membus.snoop_fanout::total                5283                       # Request fanout histogram
system.membus.reqLayer2.occupancy            17714000                       # Layer occupancy (ticks)
system.membus.reqLayer2.utilization               0.6                       # Layer utilization (%)
system.membus.respLayer1.occupancy           27990250                       # Layer occupancy (ticks)
system.membus.respLayer1.utilization              1.0                       # Layer utilization (%)
system.switch_cpus.pwrStateResidencyTicks::OFF   2749198750                       # Cumulative time (in ticks) in various power states
system.switch_cpus.dtb.walker.pwrStateResidencyTicks::UNDEFINED 120508189275000                       # Cumulative time (in ticks) in various power states
system.switch_cpus.itb.walker.pwrStateResidencyTicks::UNDEFINED 120508189275000                       # Cumulative time (in ticks) in various power states
system.tol2bus.pwrStateResidencyTicks::UNDEFINED 120508189275000                       # Cumulative time (in ticks) in various power states
system.tol2bus.trans_dist::ReadResp              6438                       # Transaction distribution
system.tol2bus.trans_dist::WritebackDirty        20924                       # Transaction distribution
system.tol2bus.trans_dist::WritebackClean          256                       # Transaction distribution
system.tol2bus.trans_dist::CleanEvict            8236                       # Transaction distribution
system.tol2bus.trans_dist::ReadExReq            19197                       # Transaction distribution
system.tol2bus.trans_dist::ReadExResp           19197                       # Transaction distribution
system.tol2bus.trans_dist::ReadCleanReq           377                       # Transaction distribution
system.tol2bus.trans_dist::ReadSharedReq         6061                       # Transaction distribution
system.tol2bus.pkt_count_system.cpu.icache.mem_side::system.l2.cpu_side         1010                       # Packet count per connected master and slave (bytes)
system.tol2bus.pkt_count_system.cpu.dcache.mem_side::system.l2.cpu_side        74750                       # Packet count per connected master and slave (bytes)
system.tol2bus.pkt_count::total                 75760                       # Packet count per connected master and slave (bytes)
system.tol2bus.pkt_size_system.cpu.icache.mem_side::system.l2.cpu_side        40512                       # Cumulative packet size per connected master and slave (bytes)
system.tol2bus.pkt_size_system.cpu.dcache.mem_side::system.l2.cpu_side      2828736                       # Cumulative packet size per connected master and slave (bytes)
system.tol2bus.pkt_size::total                2869248                       # Cumulative packet size per connected master and slave (bytes)
system.tol2bus.snoops                            4926                       # Total snoops (count)
system.tol2bus.snoopTraffic                    126912                       # Total snoop traffic (bytes)
system.tol2bus.snoop_fanout::samples            30561                       # Request fanout histogram
system.tol2bus.snoop_fanout::mean            0.079120                       # Request fanout histogram
system.tol2bus.snoop_fanout::stdev           0.269931                       # Request fanout histogram
system.tol2bus.snoop_fanout::underflows             0      0.00%      0.00% # Request fanout histogram
system.tol2bus.snoop_fanout::0                  28143     92.09%     92.09% # Request fanout histogram
system.tol2bus.snoop_fanout::1                   2418      7.91%    100.00% # Request fanout histogram
system.tol2bus.snoop_fanout::2                      0      0.00%    100.00% # Request fanout histogram
system.tol2bus.snoop_fanout::3                      0      0.00%    100.00% # Request fanout histogram
system.tol2bus.snoop_fanout::4                      0      0.00%    100.00% # Request fanout histogram
system.tol2bus.snoop_fanout::overflows              0      0.00%    100.00% # Request fanout histogram
system.tol2bus.snoop_fanout::min_value              0                       # Request fanout histogram
system.tol2bus.snoop_fanout::max_value              1                       # Request fanout histogram
system.tol2bus.snoop_fanout::total              30561                       # Request fanout histogram
system.tol2bus.reqLayer0.occupancy           44255500                       # Layer occupancy (ticks)
system.tol2bus.reqLayer0.utilization              1.6                       # Layer utilization (%)
system.tol2bus.respLayer1.occupancy          37878000                       # Layer occupancy (ticks)
system.tol2bus.respLayer1.utilization             1.4                       # Layer utilization (%)
system.tol2bus.respLayer0.occupancy            562999                       # Layer occupancy (ticks)
system.tol2bus.respLayer0.utilization             0.0                       # Layer utilization (%)
system.voltage_domain.voltage                       1                       # Voltage in Volts
system.clk_domain.clock                          1000                       # Clock period in ticks
system.l2.pwrStateResidencyTicks::UNDEFINED 120508189275000                       # Cumulative time (in ticks) in various power states
system.l2.demand_hits::.switch_cpus.inst          222                       # number of demand (read+write) hits
system.l2.demand_hits::.switch_cpus.data        20130                       # number of demand (read+write) hits
system.l2.demand_hits::total                    20352                       # number of demand (read+write) hits
system.l2.overall_hits::.switch_cpus.inst          222                       # number of overall hits
system.l2.overall_hits::.switch_cpus.data        20130                       # number of overall hits
system.l2.overall_hits::total                   20352                       # number of overall hits
system.l2.demand_misses::.cpu.inst                  2                       # number of demand (read+write) misses
system.l2.demand_misses::.cpu.data                  6                       # number of demand (read+write) misses
system.l2.demand_misses::.switch_cpus.inst          153                       # number of demand (read+write) misses
system.l2.demand_misses::.switch_cpus.data         5122                       # number of demand (read+write) misses
system.l2.demand_misses::total                   5283                       # number of demand (read+write) misses
system.l2.overall_misses::.cpu.inst                 2                       # number of overall misses
system.l2.overall_misses::.cpu.data                 6                       # number of overall misses
system.l2.overall_misses::.switch_cpus.inst          153                       # number of overall misses
system.l2.overall_misses::.switch_cpus.data         5122                       # number of overall misses
system.l2.overall_misses::total                  5283                       # number of overall misses
system.l2.demand_miss_latency::.switch_cpus.inst     12497500                       # number of demand (read+write) miss cycles
system.l2.demand_miss_latency::.switch_cpus.data    397038000                       # number of demand (read+write) miss cycles
system.l2.demand_miss_latency::total        409535500                       # number of demand (read+write) miss cycles
system.l2.overall_miss_latency::.switch_cpus.inst     12497500                       # number of overall miss cycles
system.l2.overall_miss_latency::.switch_cpus.data    397038000                       # number of overall miss cycles
system.l2.overall_miss_latency::total       409535500                       # number of overall miss cycles
system.l2.demand_accesses::.cpu.inst                2                       # number of demand (read+write) accesses
system.l2.demand_accesses::.cpu.data                6                       # number of demand (read+write) accesses
system.l2.demand_accesses::.switch_cpus.inst          375                       # number of demand (read+write) accesses
system.l2.demand_accesses::.switch_cpus.data        25252                       # number of demand (read+write) accesses
system.l2.demand_accesses::total                25635                       # number of demand (read+write) accesses
system.l2.overall_accesses::.cpu.inst               2                       # number of overall (read+write) accesses
system.l2.overall_accesses::.cpu.data               6                       # number of overall (read+write) accesses
system.l2.overall_accesses::.switch_cpus.inst          375                       # number of overall (read+write) accesses
system.l2.overall_accesses::.switch_cpus.data        25252                       # number of overall (read+write) accesses
system.l2.overall_accesses::total               25635                       # number of overall (read+write) accesses
system.l2.demand_miss_rate::.cpu.inst               1                       # miss rate for demand accesses
system.l2.demand_miss_rate::.cpu.data               1                       # miss rate for demand accesses
system.l2.demand_miss_rate::.switch_cpus.inst     0.408000                       # miss rate for demand accesses
system.l2.demand_miss_rate::.switch_cpus.data     0.202835                       # miss rate for demand accesses
system.l2.demand_miss_rate::total            0.206085                       # miss rate for demand accesses
system.l2.overall_miss_rate::.cpu.inst              1                       # miss rate for overall accesses
system.l2.overall_miss_rate::.cpu.data              1                       # miss rate for overall accesses
system.l2.overall_miss_rate::.switch_cpus.inst     0.408000                       # miss rate for overall accesses
system.l2.overall_miss_rate::.switch_cpus.data     0.202835                       # miss rate for overall accesses
system.l2.overall_miss_rate::total           0.206085                       # miss rate for overall accesses
system.l2.demand_avg_miss_latency::.switch_cpus.inst 81683.006536                       # average overall miss latency
system.l2.demand_avg_miss_latency::.switch_cpus.data 77516.204608                       # average overall miss latency
system.l2.demand_avg_miss_latency::total 77519.496498                       # average overall miss latency
system.l2.overall_avg_miss_latency::.switch_cpus.inst 81683.006536                       # average overall miss latency
system.l2.overall_avg_miss_latency::.switch_cpus.data 77516.204608                       # average overall miss latency
system.l2.overall_avg_miss_latency::total 77519.496498                       # average overall miss latency
system.l2.blocked_cycles::no_mshrs                  0                       # number of cycles access was blocked
system.l2.blocked_cycles::no_targets                0                       # number of cycles access was blocked
system.l2.blocked::no_mshrs                         0                       # number of cycles access was blocked
system.l2.blocked::no_targets                       0                       # number of cycles access was blocked
system.l2.avg_blocked_cycles::no_mshrs            nan                       # average number of cycles each access was blocked
system.l2.avg_blocked_cycles::no_targets          nan                       # average number of cycles each access was blocked
system.l2.writebacks::.writebacks                1983                       # number of writebacks
system.l2.writebacks::total                      1983                       # number of writebacks
system.l2.demand_mshr_misses::.switch_cpus.inst          153                       # number of demand (read+write) MSHR misses
system.l2.demand_mshr_misses::.switch_cpus.data         5122                       # number of demand (read+write) MSHR misses
system.l2.demand_mshr_misses::total              5275                       # number of demand (read+write) MSHR misses
system.l2.overall_mshr_misses::.switch_cpus.inst          153                       # number of overall MSHR misses
system.l2.overall_mshr_misses::.switch_cpus.data         5122                       # number of overall MSHR misses
system.l2.overall_mshr_misses::total             5275                       # number of overall MSHR misses
system.l2.demand_mshr_miss_latency::.switch_cpus.inst     10967500                       # number of demand (read+write) MSHR miss cycles
system.l2.demand_mshr_miss_latency::.switch_cpus.data    345818000                       # number of demand (read+write) MSHR miss cycles
system.l2.demand_mshr_miss_latency::total    356785500                       # number of demand (read+write) MSHR miss cycles
system.l2.overall_mshr_miss_latency::.switch_cpus.inst     10967500                       # number of overall MSHR miss cycles
system.l2.overall_mshr_miss_latency::.switch_cpus.data    345818000                       # number of overall MSHR miss cycles
system.l2.overall_mshr_miss_latency::total    356785500                       # number of overall MSHR miss cycles
system.l2.demand_mshr_miss_rate::.switch_cpus.inst     0.408000                       # mshr miss rate for demand accesses
system.l2.demand_mshr_miss_rate::.switch_cpus.data     0.202835                       # mshr miss rate for demand accesses
system.l2.demand_mshr_miss_rate::total       0.205773                       # mshr miss rate for demand accesses
system.l2.overall_mshr_miss_rate::.switch_cpus.inst     0.408000                       # mshr miss rate for overall accesses
system.l2.overall_mshr_miss_rate::.switch_cpus.data     0.202835                       # mshr miss rate for overall accesses
system.l2.overall_mshr_miss_rate::total      0.205773                       # mshr miss rate for overall accesses
system.l2.demand_avg_mshr_miss_latency::.switch_cpus.inst 71683.006536                       # average overall mshr miss latency
system.l2.demand_avg_mshr_miss_latency::.switch_cpus.data 67516.204608                       # average overall mshr miss latency
system.l2.demand_avg_mshr_miss_latency::total 67637.061611                       # average overall mshr miss latency
system.l2.overall_avg_mshr_miss_latency::.switch_cpus.inst 71683.006536                       # average overall mshr miss latency
system.l2.overall_avg_mshr_miss_latency::.switch_cpus.data 67516.204608                       # average overall mshr miss latency
system.l2.overall_avg_mshr_miss_latency::total 67637.061611                       # average overall mshr miss latency
system.l2.replacements                           4926                       # number of replacements
system.l2.WritebackDirty_hits::.writebacks        18941                       # number of WritebackDirty hits
system.l2.WritebackDirty_hits::total            18941                       # number of WritebackDirty hits
system.l2.WritebackDirty_accesses::.writebacks        18941                       # number of WritebackDirty accesses(hits+misses)
system.l2.WritebackDirty_accesses::total        18941                       # number of WritebackDirty accesses(hits+misses)
system.l2.WritebackClean_hits::.writebacks          256                       # number of WritebackClean hits
system.l2.WritebackClean_hits::total              256                       # number of WritebackClean hits
system.l2.WritebackClean_accesses::.writebacks          256                       # number of WritebackClean accesses(hits+misses)
system.l2.WritebackClean_accesses::total          256                       # number of WritebackClean accesses(hits+misses)
system.l2.CleanEvict_mshr_misses::.writebacks          666                       # number of CleanEvict MSHR misses
system.l2.CleanEvict_mshr_misses::total           666                       # number of CleanEvict MSHR misses
system.l2.CleanEvict_mshr_miss_rate::.writebacks          inf                       # mshr miss rate for CleanEvict accesses
system.l2.CleanEvict_mshr_miss_rate::total          inf                       # mshr miss rate for CleanEvict accesses
system.l2.ReadExReq_hits::.switch_cpus.data        15746                       # number of ReadExReq hits
system.l2.ReadExReq_hits::total                 15746                       # number of ReadExReq hits
system.l2.ReadExReq_misses::.cpu.data               1                       # number of ReadExReq misses
system.l2.ReadExReq_misses::.switch_cpus.data         3450                       # number of ReadExReq misses
system.l2.ReadExReq_misses::total                3451                       # number of ReadExReq misses
system.l2.ReadExReq_miss_latency::.switch_cpus.data    256500000                       # number of ReadExReq miss cycles
system.l2.ReadExReq_miss_latency::total     256500000                       # number of ReadExReq miss cycles
system.l2.ReadExReq_accesses::.cpu.data             1                       # number of ReadExReq accesses(hits+misses)
system.l2.ReadExReq_accesses::.switch_cpus.data        19196                       # number of ReadExReq accesses(hits+misses)
system.l2.ReadExReq_accesses::total             19197                       # number of ReadExReq accesses(hits+misses)
system.l2.ReadExReq_miss_rate::.cpu.data            1                       # miss rate for ReadExReq accesses
system.l2.ReadExReq_miss_rate::.switch_cpus.data     0.179725                       # miss rate for ReadExReq accesses
system.l2.ReadExReq_miss_rate::total         0.179768                       # miss rate for ReadExReq accesses
system.l2.ReadExReq_avg_miss_latency::.switch_cpus.data 74347.826087                       # average ReadExReq miss latency
system.l2.ReadExReq_avg_miss_latency::total 74326.282237                       # average ReadExReq miss latency
system.l2.ReadExReq_mshr_misses::.switch_cpus.data         3450                       # number of ReadExReq MSHR misses
system.l2.ReadExReq_mshr_misses::total           3450                       # number of ReadExReq MSHR misses
system.l2.ReadExReq_mshr_miss_latency::.switch_cpus.data    222000000                       # number of ReadExReq MSHR miss cycles
system.l2.ReadExReq_mshr_miss_latency::total    222000000                       # number of ReadExReq MSHR miss cycles
system.l2.ReadExReq_mshr_miss_rate::.switch_cpus.data     0.179725                       # mshr miss rate for ReadExReq accesses
system.l2.ReadExReq_mshr_miss_rate::total     0.179716                       # mshr miss rate for ReadExReq accesses
system.l2.ReadExReq_avg_mshr_miss_latency::.switch_cpus.data 64347.826087                       # average ReadExReq mshr miss latency
system.l2.ReadExReq_avg_mshr_miss_latency::total 64347.826087                       # average ReadExReq mshr miss latency
system.l2.ReadCleanReq_hits::.switch_cpus.inst          222                       # number of ReadCleanReq hits
system.l2.ReadCleanReq_hits::total                222                       # number of ReadCleanReq hits
system.l2.ReadCleanReq_misses::.cpu.inst            2                       # number of ReadCleanReq misses
system.l2.ReadCleanReq_misses::.switch_cpus.inst          153                       # number of ReadCleanReq misses
system.l2.ReadCleanReq_misses::total              155                       # number of ReadCleanReq misses
system.l2.ReadCleanReq_miss_latency::.switch_cpus.inst     12497500                       # number of ReadCleanReq miss cycles
system.l2.ReadCleanReq_miss_latency::total     12497500                       # number of ReadCleanReq miss cycles
system.l2.ReadCleanReq_accesses::.cpu.inst            2                       # number of ReadCleanReq accesses(hits+misses)
system.l2.ReadCleanReq_accesses::.switch_cpus.inst          375                       # number of ReadCleanReq accesses(hits+misses)
system.l2.ReadCleanReq_accesses::total            377                       # number of ReadCleanReq accesses(hits+misses)
system.l2.ReadCleanReq_miss_rate::.cpu.inst            1                       # miss rate for ReadCleanReq accesses
system.l2.ReadCleanReq_miss_rate::.switch_cpus.inst     0.408000                       # miss rate for ReadCleanReq accesses
[...]
system.cpu.itb_walker_cache.blocked::no_mshrs            0                       # number of cycles access was blocked
system.cpu.itb_walker_cache.blocked::no_targets            0                       # number of cycles access was blocked
system.cpu.itb_walker_cache.avg_blocked_cycles::no_mshrs          nan                       # average number of cycles each access was blocked
system.cpu.itb_walker_cache.avg_blocked_cycles::no_targets          nan                       # average number of cycles each access was blocked
system.cpu.itb_walker_cache.replacements            0                       # number of replacements
system.cpu.itb_walker_cache.tags.pwrStateResidencyTicks::UNDEFINED 120516415930500                       # Cumulative time (in ticks) in various power states
system.cpu.itb_walker_cache.tags.tagsinuse            0                       # Cycle average of tags in use
system.cpu.itb_walker_cache.tags.total_refs            0                       # Total number of references to valid blocks.
system.cpu.itb_walker_cache.tags.sampled_refs            0                       # Sample count of references to valid blocks.
system.cpu.itb_walker_cache.tags.avg_refs          nan                       # Average number of references to valid blocks.
system.cpu.itb_walker_cache.tags.warmup_cycle            0                       # Cycle when the warmup percentage was hit.
system.cpu.itb_walker_cache.tags.tag_accesses            0                       # Number of tag accesses
system.cpu.itb_walker_cache.tags.data_accesses            0                       # Number of data accesses
system.cpu.itb.walker.pwrStateResidencyTicks::UNDEFINED 120516415930500                       # Cumulative time (in ticks) in various power states
system.cpu.dtb_walker_cache.pwrStateResidencyTicks::UNDEFINED 120516415930500                       # Cumulative time (in ticks) in various power states
system.cpu.dtb_walker_cache.blocked_cycles::no_mshrs            0                       # number of cycles access was blocked
system.cpu.dtb_walker_cache.blocked_cycles::no_targets            0                       # number of cycles access was blocked
system.cpu.dtb_walker_cache.blocked::no_mshrs            0                       # number of cycles access was blocked
system.cpu.dtb_walker_cache.blocked::no_targets            0                       # number of cycles access was blocked
system.cpu.dtb_walker_cache.avg_blocked_cycles::no_mshrs          nan                       # average number of cycles each access was blocked
system.cpu.dtb_walker_cache.avg_blocked_cycles::no_targets          nan                       # average number of cycles each access was blocked
system.cpu.dtb_walker_cache.replacements            0                       # number of replacements
system.cpu.dtb_walker_cache.tags.pwrStateResidencyTicks::UNDEFINED 120516415930500                       # Cumulative time (in ticks) in various power states
system.cpu.dtb_walker_cache.tags.tagsinuse            0                       # Cycle average of tags in use
system.cpu.dtb_walker_cache.tags.total_refs            0                       # Total number of references to valid blocks.
system.cpu.dtb_walker_cache.tags.sampled_refs            0                       # Sample count of references to valid blocks.
system.cpu.dtb_walker_cache.tags.avg_refs          nan                       # Average number of references to valid blocks.
system.cpu.dtb_walker_cache.tags.warmup_cycle            0                       # Cycle when the warmup percentage was hit.
system.cpu.dtb_walker_cache.tags.tag_accesses            0                       # Number of tag accesses
system.cpu.dtb_walker_cache.tags.data_accesses            0                       # Number of data accesses
system.cpu.dcache.pwrStateResidencyTicks::UNDEFINED 120516415930500                       # Cumulative time (in ticks) in various power states
system.cpu.dcache.demand_hits::.cpu.data            2                       # number of demand (read+write) hits
system.cpu.dcache.demand_hits::.switch_cpus.data     18676219                       # number of demand (read+write) hits
system.cpu.dcache.demand_hits::total         18676221                       # number of demand (read+write) hits
system.cpu.dcache.overall_hits::.cpu.data            2                       # number of overall hits
system.cpu.dcache.overall_hits::.switch_cpus.data     18676219                       # number of overall hits
system.cpu.dcache.overall_hits::total        18676221                       # number of overall hits
system.cpu.dcache.demand_misses::.cpu.data            6                       # number of demand (read+write) misses
system.cpu.dcache.demand_misses::.switch_cpus.data       109267                       # number of demand (read+write) misses
system.cpu.dcache.demand_misses::total         109273                       # number of demand (read+write) misses
system.cpu.dcache.overall_misses::.cpu.data            6                       # number of overall misses
system.cpu.dcache.overall_misses::.switch_cpus.data       109267                       # number of overall misses
system.cpu.dcache.overall_misses::total        109273                       # number of overall misses
system.cpu.dcache.demand_miss_latency::.switch_cpus.data   2932316993                       # number of demand (read+write) miss cycles
system.cpu.dcache.demand_miss_latency::total   2932316993                       # number of demand (read+write) miss cycles
system.cpu.dcache.overall_miss_latency::.switch_cpus.data   2932316993                       # number of overall miss cycles
system.cpu.dcache.overall_miss_latency::total   2932316993                       # number of overall miss cycles
system.cpu.dcache.demand_accesses::.cpu.data            8                       # number of demand (read+write) accesses
system.cpu.dcache.demand_accesses::.switch_cpus.data     18785486                       # number of demand (read+write) accesses
system.cpu.dcache.demand_accesses::total     18785494                       # number of demand (read+write) accesses
system.cpu.dcache.overall_accesses::.cpu.data            8                       # number of overall (read+write) accesses
system.cpu.dcache.overall_accesses::.switch_cpus.data     18785486                       # number of overall (read+write) accesses
system.cpu.dcache.overall_accesses::total     18785494                       # number of overall (read+write) accesses
system.cpu.dcache.demand_miss_rate::.cpu.data     0.750000                       # miss rate for demand accesses
system.cpu.dcache.demand_miss_rate::.switch_cpus.data     0.005817                       # miss rate for demand accesses
system.cpu.dcache.demand_miss_rate::total     0.005817                       # miss rate for demand accesses
system.cpu.dcache.overall_miss_rate::.cpu.data     0.750000                       # miss rate for overall accesses
system.cpu.dcache.overall_miss_rate::.switch_cpus.data     0.005817                       # miss rate for overall accesses
system.cpu.dcache.overall_miss_rate::total     0.005817                       # miss rate for overall accesses
system.cpu.dcache.demand_avg_miss_latency::.switch_cpus.data 26836.254249                       # average overall miss latency
system.cpu.dcache.demand_avg_miss_latency::total 26834.780714                       # average overall miss latency
system.cpu.dcache.overall_avg_miss_latency::.switch_cpus.data 26836.254249                       # average overall miss latency
system.cpu.dcache.overall_avg_miss_latency::total 26834.780714                       # average overall miss latency
system.cpu.dcache.blocked_cycles::no_mshrs        21439                       # number of cycles access was blocked
system.cpu.dcache.blocked_cycles::no_targets            0                       # number of cycles access was blocked
system.cpu.dcache.blocked::no_mshrs               801                       # number of cycles access was blocked
system.cpu.dcache.blocked::no_targets               0                       # number of cycles access was blocked
system.cpu.dcache.avg_blocked_cycles::no_mshrs    26.765293                       # average number of cycles each access was blocked
system.cpu.dcache.avg_blocked_cycles::no_targets          nan                       # average number of cycles each access was blocked
system.cpu.dcache.writebacks::.writebacks        81625                       # number of writebacks
system.cpu.dcache.writebacks::total             81625                       # number of writebacks
system.cpu.dcache.demand_mshr_hits::.switch_cpus.data         4276                       # number of demand (read+write) MSHR hits
system.cpu.dcache.demand_mshr_hits::total         4276                       # number of demand (read+write) MSHR hits
system.cpu.dcache.overall_mshr_hits::.switch_cpus.data         4276                       # number of overall MSHR hits
system.cpu.dcache.overall_mshr_hits::total         4276                       # number of overall MSHR hits
system.cpu.dcache.demand_mshr_misses::.switch_cpus.data       104991                       # number of demand (read+write) MSHR misses
system.cpu.dcache.demand_mshr_misses::total       104991                       # number of demand (read+write) MSHR misses
system.cpu.dcache.overall_mshr_misses::.switch_cpus.data       104991                       # number of overall MSHR misses
system.cpu.dcache.overall_mshr_misses::total       104991                       # number of overall MSHR misses
system.cpu.dcache.demand_mshr_miss_latency::.switch_cpus.data   2665833993                       # number of demand (read+write) MSHR miss cycles
system.cpu.dcache.demand_mshr_miss_latency::total   2665833993                       # number of demand (read+write) MSHR miss cycles
system.cpu.dcache.overall_mshr_miss_latency::.switch_cpus.data   2665833993                       # number of overall MSHR miss cycles
system.cpu.dcache.overall_mshr_miss_latency::total   2665833993                       # number of overall MSHR miss cycles
system.cpu.dcache.demand_mshr_miss_rate::.switch_cpus.data     0.005589                       # mshr miss rate for demand accesses
system.cpu.dcache.demand_mshr_miss_rate::total     0.005589                       # mshr miss rate for demand accesses
system.cpu.dcache.overall_mshr_miss_rate::.switch_cpus.data     0.005589                       # mshr miss rate for overall accesses
system.cpu.dcache.overall_mshr_miss_rate::total     0.005589                       # mshr miss rate for overall accesses
system.cpu.dcache.demand_avg_mshr_miss_latency::.switch_cpus.data 25391.071549                       # average overall mshr miss latency
system.cpu.dcache.demand_avg_mshr_miss_latency::total 25391.071549                       # average overall mshr miss latency
system.cpu.dcache.overall_avg_mshr_miss_latency::.switch_cpus.data 25391.071549                       # average overall mshr miss latency
system.cpu.dcache.overall_avg_mshr_miss_latency::total 25391.071549                       # average overall mshr miss latency
system.cpu.dcache.replacements                 103973                       # number of replacements
system.cpu.dcache.ReadReq_hits::.cpu.data            1                       # number of ReadReq hits
system.cpu.dcache.ReadReq_hits::.switch_cpus.data     13161697                       # number of ReadReq hits
system.cpu.dcache.ReadReq_hits::total        13161698                       # number of ReadReq hits
system.cpu.dcache.ReadReq_misses::.cpu.data            5                       # number of ReadReq misses
system.cpu.dcache.ReadReq_misses::.switch_cpus.data        28885                       # number of ReadReq misses
system.cpu.dcache.ReadReq_misses::total         28890                       # number of ReadReq misses
system.cpu.dcache.ReadReq_miss_latency::.switch_cpus.data   1018848500                       # number of ReadReq miss cycles
system.cpu.dcache.ReadReq_miss_latency::total   1018848500                       # number of ReadReq miss cycles
system.cpu.dcache.ReadReq_accesses::.cpu.data            6                       # number of ReadReq accesses(hits+misses)
system.cpu.dcache.ReadReq_accesses::.switch_cpus.data     13190582                       # number of ReadReq accesses(hits+misses)
system.cpu.dcache.ReadReq_accesses::total     13190588                       # number of ReadReq accesses(hits+misses)
system.cpu.dcache.ReadReq_miss_rate::.cpu.data     0.833333                       # miss rate for ReadReq accesses
system.cpu.dcache.ReadReq_miss_rate::.switch_cpus.data     0.002190                       # miss rate for ReadReq accesses
system.cpu.dcache.ReadReq_miss_rate::total     0.002190                       # miss rate for ReadReq accesses
system.cpu.dcache.ReadReq_avg_miss_latency::.switch_cpus.data 35272.580924                       # average ReadReq miss latency
system.cpu.dcache.ReadReq_avg_miss_latency::total 35266.476289                       # average ReadReq miss latency
system.cpu.dcache.ReadReq_mshr_hits::.switch_cpus.data         4275                       # number of ReadReq MSHR hits
system.cpu.dcache.ReadReq_mshr_hits::total         4275                       # number of ReadReq MSHR hits
system.cpu.dcache.ReadReq_mshr_misses::.switch_cpus.data        24610                       # number of ReadReq MSHR misses
system.cpu.dcache.ReadReq_mshr_misses::total        24610                       # number of ReadReq MSHR misses
system.cpu.dcache.ReadReq_mshr_miss_latency::.switch_cpus.data    832805500                       # number of ReadReq MSHR miss cycles
system.cpu.dcache.ReadReq_mshr_miss_latency::total    832805500                       # number of ReadReq MSHR miss cycles
system.cpu.dcache.ReadReq_mshr_miss_rate::.switch_cpus.data     0.001866                       # mshr miss rate for ReadReq accesses
system.cpu.dcache.ReadReq_mshr_miss_rate::total     0.001866                       # mshr miss rate for ReadReq accesses
system.cpu.dcache.ReadReq_avg_mshr_miss_latency::.switch_cpus.data 33840.125965                       # average ReadReq mshr miss latency
system.cpu.dcache.ReadReq_avg_mshr_miss_latency::total 33840.125965                       # average ReadReq mshr miss latency
system.cpu.dcache.WriteReq_hits::.cpu.data            1                       # number of WriteReq hits
system.cpu.dcache.WriteReq_hits::.switch_cpus.data      5514522                       # number of WriteReq hits
system.cpu.dcache.WriteReq_hits::total        5514523                       # number of WriteReq hits
system.cpu.dcache.WriteReq_misses::.cpu.data            1                       # number of WriteReq misses
system.cpu.dcache.WriteReq_misses::.switch_cpus.data        80382                       # number of WriteReq misses
system.cpu.dcache.WriteReq_misses::total        80383                       # number of WriteReq misses
system.cpu.dcache.WriteReq_miss_latency::.switch_cpus.data   1913468493                       # number of WriteReq miss cycles
system.cpu.dcache.WriteReq_miss_latency::total   1913468493                       # number of WriteReq miss cycles
system.cpu.dcache.WriteReq_accesses::.cpu.data            2                       # number of WriteReq accesses(hits+misses)
system.cpu.dcache.WriteReq_accesses::.switch_cpus.data      5594904                       # number of WriteReq accesses(hits+misses)
system.cpu.dcache.WriteReq_accesses::total      5594906                       # number of WriteReq accesses(hits+misses)
system.cpu.dcache.WriteReq_miss_rate::.cpu.data     0.500000                       # miss rate for WriteReq accesses
system.cpu.dcache.WriteReq_miss_rate::.switch_cpus.data     0.014367                       # miss rate for WriteReq accesses
system.cpu.dcache.WriteReq_miss_rate::total     0.014367                       # miss rate for WriteReq accesses
system.cpu.dcache.WriteReq_avg_miss_latency::.switch_cpus.data 23804.688774                       # average WriteReq miss latency
system.cpu.dcache.WriteReq_avg_miss_latency::total 23804.392633                       # average WriteReq miss latency
system.cpu.dcache.WriteReq_mshr_hits::.switch_cpus.data            1                       # number of WriteReq MSHR hits
system.cpu.dcache.WriteReq_mshr_hits::total            1                       # number of WriteReq MSHR hits
system.cpu.dcache.WriteReq_mshr_misses::.switch_cpus.data        80381                       # number of WriteReq MSHR misses
system.cpu.dcache.WriteReq_mshr_misses::total        80381                       # number of WriteReq MSHR misses
system.cpu.dcache.WriteReq_mshr_miss_latency::.switch_cpus.data   1833028493                       # number of WriteReq MSHR miss cycles
system.cpu.dcache.WriteReq_mshr_miss_latency::total   1833028493                       # number of WriteReq MSHR miss cycles
system.cpu.dcache.WriteReq_mshr_miss_rate::.switch_cpus.data     0.014367                       # mshr miss rate for WriteReq accesses
system.cpu.dcache.WriteReq_mshr_miss_rate::total     0.014367                       # mshr miss rate for WriteReq accesses
system.cpu.dcache.WriteReq_avg_mshr_miss_latency::.switch_cpus.data 22804.250918                       # average WriteReq mshr miss latency
system.cpu.dcache.WriteReq_avg_mshr_miss_latency::total 22804.250918                       # average WriteReq mshr miss latency
system.cpu.dcache.tags.pwrStateResidencyTicks::UNDEFINED 120516415930500                       # Cumulative time (in ticks) in various power states
system.cpu.dcache.tags.tagsinuse             0.092644                       # Cycle average of tags in use
system.cpu.dcache.tags.total_refs            18781218                       # Total number of references to valid blocks.
system.cpu.dcache.tags.sampled_refs            104997                       # Sample count of references to valid blocks.
system.cpu.dcache.tags.avg_refs            178.873854                       # Average number of references to valid blocks.
system.cpu.dcache.tags.warmup_cycle      120505440077000                       # Cycle when the warmup percentage was hit.
system.cpu.dcache.tags.occ_blocks::.cpu.data     0.000296                       # Average occupied blocks per requestor
system.cpu.dcache.tags.occ_blocks::.switch_cpus.data     0.092348                       # Average occupied blocks per requestor
system.cpu.dcache.tags.occ_percent::.cpu.data     0.000000                       # Average percentage of cache occupancy
system.cpu.dcache.tags.occ_percent::.switch_cpus.data     0.000090                       # Average percentage of cache occupancy
system.cpu.dcache.tags.occ_percent::total     0.000090                       # Average percentage of cache occupancy
system.cpu.dcache.tags.occ_task_id_blocks::1024         1024                       # Occupied blocks per task id
system.cpu.dcache.tags.age_task_id_blocks_1024::0            9                       # Occupied blocks per task id
system.cpu.dcache.tags.age_task_id_blocks_1024::1          809                       # Occupied blocks per task id
system.cpu.dcache.tags.age_task_id_blocks_1024::2          170                       # Occupied blocks per task id
system.cpu.dcache.tags.age_task_id_blocks_1024::3           16                       # Occupied blocks per task id
system.cpu.dcache.tags.age_task_id_blocks_1024::4           20                       # Occupied blocks per task id
system.cpu.dcache.tags.occ_task_id_percent::1024            1                       # Percentage of cache occupancy per task id
system.cpu.dcache.tags.tag_accesses          37675985                       # Number of tag accesses
system.cpu.dcache.tags.data_accesses         37675985                       # Number of data accesses

---------- End Simulation Statistics   ----------
